MMV670936
 OpenBabel06241423362D

 30 33  0  0  0  0  0  0  0  0999 V2000
    1.7321    0.0000    0.0000 C   0  0  0  0  0  0  0  0  0  0  0  0
    2.5981   -0.5000    0.0000 C   0  0  0  0  0  0  0  0  0  0  0  0
    3.4641    0.0000    0.0000 O   0  0  0  0  0  0  0  0  0  0  0  0
    4.3301   -0.5000    0.0000 C   0  0  0  0  0  0  0  0  0  0  0  0
    4.3301   -1.5000    0.0000 C   0  0  0  0  0  0  0  0  0  0  0  0
    5.1962   -2.0000    0.0000 N   0  0  0  0  0  0  0  0  0  0  0  0
    6.0622   -1.5000    0.0000 C   0  0  0  0  0  0  0  0  0  0  0  0
    6.0622   -0.5000    0.0000 C   0  0  0  0  0  0  0  0  0  0  0  0
    5.1962    0.0000    0.0000 N   0  0  0  0  0  0  0  0  0  0  0  0
    5.4041    0.9781    0.0000 C   0  0  0  0  0  0  0  0  0  0  0  0
    6.3986    1.0827    0.0000 N   0  0  0  0  0  0  0  0  0  0  0  0
    6.8053    0.1691    0.0000 N   0  0  0  0  0  0  0  0  0  0  0  0
    4.7349    1.7213    0.0000 C   0  0  0  0  0  0  0  0  0  0  0  0
    3.7568    1.5134    0.0000 C   0  0  0  0  0  0  0  0  0  0  0  0
    3.0877    2.2565    0.0000 N   0  0  0  0  0  0  0  0  0  0  0  0
    3.3967    3.2076    0.0000 C   0  0  0  0  0  0  0  0  0  0  0  0
    4.3748    3.4155    0.0000 C   0  0  0  0  0  0  0  0  0  0  0  0
    5.0440    2.6723    0.0000 C   0  0  0  0  0  0  0  0  0  0  0  0
    2.7275    3.9507    0.0000 C   0  0  0  0  0  0  0  0  0  0  0  0
    1.7765    4.2597    0.0000 F   0  0  0  0  0  0  0  0  0  0  0  0
    1.9844    3.2816    0.0000 F   0  0  0  0  0  0  0  0  0  0  0  0
    3.0366    4.9018    0.0000 F   0  0  0  0  0  0  0  0  0  0  0  0
    0.8660   -0.5000    0.0000 C   0  0  0  0  0  0  0  0  0  0  0  0
    0.8660   -1.5000    0.0000 C   0  0  0  0  0  0  0  0  0  0  0  0
    0.0000   -2.0000    0.0000 C   0  0  0  0  0  0  0  0  0  0  0  0
   -0.8660   -1.5000    0.0000 C   0  0  0  0  0  0  0  0  0  0  0  0
   -0.8660   -0.5000    0.0000 C   0  0  0  0  0  0  0  0  0  0  0  0
    0.0000    0.0000    0.0000 C   0  0  0  0  0  0  0  0  0  0  0  0
   -1.7321   -2.0000    0.0000 F   0  0  0  0  0  0  0  0  0  0  0  0
    0.0000   -3.0000    0.0000 F   0  0  0  0  0  0  0  0  0  0  0  0
  1  2  1  0  0  0  0
  1 23  1  0  0  0  0
  2  3  1  0  0  0  0
  3  4  1  0  0  0  0
  4  9  1  0  0  0  0
  4  5  2  0  0  0  0
  5  6  1  0  0  0  0
  6  7  2  0  0  0  0
  7  8  1  0  0  0  0
  8 12  2  0  0  0  0
  8  9  1  0  0  0  0
  9 10  1  0  0  0  0
 10 11  2  0  0  0  0
 10 13  1  0  0  0  0
 11 12  1  0  0  0  0
 13 18  1  0  0  0  0
 13 14  2  0  0  0  0
 14 15  1  0  0  0  0
 15 16  2  0  0  0  0
 16 17  1  0  0  0  0
 16 19  1  0  0  0  0
 17 18  2  0  0  0  0
 19 20  1  0  0  0  0
 19 21  1  0  0  0  0
 19 22  1  0  0  0  0
 23 28  1  0  0  0  0
 23 24  2  0  0  0  0
 24 25  1  0  0  0  0
 25 26  2  0  0  0  0
 25 30  1  0  0  0  0
 26 27  1  0  0  0  0
 26 29  1  0  0  0  0
 27 28  2  0  0  0  0
M  END
> <MW>
421.33

> <EC50>
0.2621

$$$$
