MMV670652
 OpenBabel06241423362D

 32 35  0  0  1  0  0  0  0  0999 V2000
   -0.8660    1.5000    0.0000 C   0  0  3  0  0  0  0  0  0  0  0  0
   -1.7321    1.0000    0.0000 C   0  0  0  0  0  0  0  0  0  0  0  0
   -1.7321    0.0000    0.0000 O   0  0  0  0  0  0  0  0  0  0  0  0
   -2.5981   -0.5000    0.0000 C   0  0  0  0  0  0  0  0  0  0  0  0
   -3.4641    0.0000    0.0000 C   0  0  0  0  0  0  0  0  0  0  0  0
   -4.3301   -0.5000    0.0000 N   0  0  0  0  0  0  0  0  0  0  0  0
   -4.3301   -1.5000    0.0000 C   0  0  0  0  0  0  0  0  0  0  0  0
   -3.4641   -2.0000    0.0000 C   0  0  0  0  0  0  0  0  0  0  0  0
   -2.5981   -1.5000    0.0000 N   0  0  0  0  0  0  0  0  0  0  0  0
   -1.8549   -2.1691    0.0000 C   0  0  0  0  0  0  0  0  0  0  0  0
   -2.2617   -3.0827    0.0000 N   0  0  0  0  0  0  0  0  0  0  0  0
   -3.2562   -2.9781    0.0000 N   0  0  0  0  0  0  0  0  0  0  0  0
   -0.8768   -1.9612    0.0000 C   0  0  0  0  0  0  0  0  0  0  0  0
   -0.5678   -1.0102    0.0000 C   0  0  0  0  0  0  0  0  0  0  0  0
    0.4104   -0.8023    0.0000 C   0  0  0  0  0  0  0  0  0  0  0  0
    1.0795   -1.5454    0.0000 C   0  0  0  0  0  0  0  0  0  0  0  0
    0.7705   -2.4965    0.0000 C   0  0  0  0  0  0  0  0  0  0  0  0
   -0.2077   -2.7044    0.0000 C   0  0  0  0  0  0  0  0  0  0  0  0
    2.0577   -1.3375    0.0000 C   0  0  0  0  0  0  0  0  0  0  0  0
    3.0358   -1.1296    0.0000 N   0  0  0  0  0  0  0  0  0  0  0  0
    0.0000    1.0000    0.0000 C   0  0  0  0  0  0  0  0  0  0  0  0
    0.8660    1.5000    0.0000 C   0  0  0  0  0  0  0  0  0  0  0  0
    1.7321    1.0000    0.0000 C   0  0  0  0  0  0  0  0  0  0  0  0
    1.7321    0.0000    0.0000 C   0  0  0  0  0  0  0  0  0  0  0  0
    0.8660   -0.5000    0.0000 C   0  0  0  0  0  0  0  0  0  0  0  0
    0.0000    0.0000    0.0000 C   0  0  0  0  0  0  0  0  0  0  0  0
    2.5981   -0.5000    0.0000 F   0  0  0  0  0  0  0  0  0  0  0  0
    2.5981    1.5000    0.0000 F   0  0  0  0  0  0  0  0  0  0  0  0
   -0.8660    2.5000    0.0000 O   0  0  0  0  0  0  0  0  0  0  0  0
    0.0000    3.0000    0.0000 C   0  0  0  0  0  0  0  0  0  0  0  0
    0.8660    2.5000    0.0000 F   0  0  0  0  0  0  0  0  0  0  0  0
    0.0000    4.0000    0.0000 F   0  0  0  0  0  0  0  0  0  0  0  0
  1  2  1  0  0  0  0
  1 21  1  0  0  0  0
  1 29  1  0  0  0  0
  2  3  1  0  0  0  0
  3  4  1  0  0  0  0
  4  9  1  0  0  0  0
  4  5  2  0  0  0  0
  5  6  1  0  0  0  0
  6  7  2  0  0  0  0
  7  8  1  0  0  0  0
  8 12  2  0  0  0  0
  8  9  1  0  0  0  0
  9 10  1  0  0  0  0
 10 11  2  0  0  0  0
 10 13  1  0  0  0  0
 11 12  1  0  0  0  0
 13 18  1  0  0  0  0
 13 14  2  0  0  0  0
 14 15  1  0  0  0  0
 15 16  2  0  0  0  0
 16 17  1  0  0  0  0
 16 19  1  0  0  0  0
 17 18  2  0  0  0  0
 19 20  3  0  0  0  0
 21 26  1  0  0  0  0
 21 22  2  0  0  0  0
 22 23  1  0  0  0  0
 23 24  2  0  0  0  0
 23 28  1  0  0  0  0
 24 25  1  0  0  0  0
 24 27  1  0  0  0  0
 25 26  2  0  0  0  0
 29 30  1  0  0  0  0
 30 31  1  0  0  0  0
 30 32  1  0  0  0  0
M  END
> <MW>
443.36

> <EC50>
0.01668

$$$$
