MMV669102
 OpenBabel06241423362D

 35 38  0  0  0  0  0  0  0  0999 V2000
    0.7138    4.1723    0.0000 C   0  0  0  0  0  0  0  0  0  0  0  0
   -0.1522    4.6723    0.0000 N   0  0  0  0  0  0  0  0  0  0  0  0
   -1.0182    4.1723    0.0000 C   0  0  0  0  0  0  0  0  0  0  0  0
   -1.0182    3.1723    0.0000 C   0  0  0  0  0  0  0  0  0  0  0  0
   -0.1522    2.6723    0.0000 N   0  0  0  0  0  0  0  0  0  0  0  0
    0.7138    3.1723    0.0000 C   0  0  0  0  0  0  0  0  0  0  0  0
    1.5798    2.6723    0.0000 O   0  0  0  0  0  0  0  0  0  0  0  0
    2.4459    3.1723    0.0000 C   0  0  0  0  0  0  0  0  0  0  0  0
    3.3119    2.6723    0.0000 C   0  0  0  0  0  0  0  0  0  0  0  0
    4.1779    3.1723    0.0000 C   0  0  0  0  0  0  0  0  0  0  0  0
    4.1779    4.1723    0.0000 C   0  0  0  0  0  0  0  0  0  0  0  0
    5.0440    4.6723    0.0000 C   0  0  0  0  0  0  0  0  0  0  0  0
    5.9100    4.1723    0.0000 C   0  0  0  0  0  0  0  0  0  0  0  0
    5.9100    3.1723    0.0000 C   0  0  0  0  0  0  0  0  0  0  0  0
    5.0440    2.6723    0.0000 C   0  0  0  0  0  0  0  0  0  0  0  0
    6.7760    4.6723    0.0000 F   0  0  0  0  0  0  0  0  0  0  0  0
    5.0440    5.6723    0.0000 F   0  0  0  0  0  0  0  0  0  0  0  0
   -0.3601    1.6942    0.0000 C   0  0  0  0  0  0  0  0  0  0  0  0
   -1.3546    1.5897    0.0000 N   0  0  0  0  0  0  0  0  0  0  0  0
   -1.7614    2.5032    0.0000 N   0  0  0  0  0  0  0  0  0  0  0  0
    0.3090    0.9511    0.0000 C   0  0  0  0  0  0  0  0  0  0  0  0
    1.2872    1.1590    0.0000 C   0  0  0  0  0  0  0  0  0  0  0  0
    1.9563    0.4158    0.0000 C   0  0  0  0  0  0  0  0  0  0  0  0
    1.6473   -0.5352    0.0000 C   0  0  0  0  0  0  0  0  0  0  0  0
    0.6691   -0.7431    0.0000 C   0  0  0  0  0  0  0  0  0  0  0  0
    0.0000    0.0000    0.0000 C   0  0  0  0  0  0  0  0  0  0  0  0
    2.3164   -1.2784    0.0000 O   0  0  0  0  0  0  0  0  0  0  0  0
    2.0074   -2.2294    0.0000 C   0  0  0  0  0  0  0  0  0  0  0  0
    1.0292   -2.4373    0.0000 F   0  0  0  0  0  0  0  0  0  0  0  0
    2.6765   -2.9726    0.0000 F   0  0  0  0  0  0  0  0  0  0  0  0
   -1.8843    4.6723    0.0000 N   0  0  0  0  0  0  0  0  0  0  0  0
   -1.8843    5.6723    0.0000 C   0  0  0  0  0  0  0  0  0  0  0  0
   -1.0182    6.1723    0.0000 C   0  0  0  0  0  0  0  0  0  0  0  0
   -2.7503    4.1723    0.0000 C   0  0  0  0  0  0  0  0  0  0  0  0
   -2.7503    3.1723    0.0000 C   0  0  0  0  0  0  0  0  0  0  0  0
  1  6  2  0  0  0  0
  1  2  1  0  0  0  0
  2  3  2  0  0  0  0
  3  4  1  0  0  0  0
  3 31  1  0  0  0  0
  4 20  2  0  0  0  0
  4  5  1  0  0  0  0
  5  6  1  0  0  0  0
  5 18  1  0  0  0  0
  6  7  1  0  0  0  0
  7  8  1  0  0  0  0
  8  9  1  0  0  0  0
  9 10  1  0  0  0  0
 10 15  1  0  0  0  0
 10 11  2  0  0  0  0
 11 12  1  0  0  0  0
 12 13  2  0  0  0  0
 12 17  1  0  0  0  0
 13 14  1  0  0  0  0
 13 16  1  0  0  0  0
 14 15  2  0  0  0  0
 18 19  2  0  0  0  0
 18 21  1  0  0  0  0
 19 20  1  0  0  0  0
 21 26  1  0  0  0  0
 21 22  2  0  0  0  0
 22 23  1  0  0  0  0
 23 24  2  0  0  0  0
 24 25  1  0  0  0  0
 24 27  1  0  0  0  0
 25 26  2  0  0  0  0
 27 28  1  0  0  0  0
 28 29  1  0  0  0  0
 28 30  1  0  0  0  0
 31 32  1  0  0  0  0
 31 34  1  0  0  0  0
 32 33  1  0  0  0  0
 34 35  1  0  0  0  0
M  END
> <MW>
489.47

> <EC50>
6.86

$$$$
