MMV668956
 OpenBabel06241423362D

 32 36  0  0  0  0  0  0  0  0999 V2000
    0.0000   -1.0000    0.0000 C   0  0  0  0  0  0  0  0  0  0  0  0
    0.0000    0.0000    0.0000 C   0  0  0  0  0  0  0  0  0  0  0  0
    1.0000    0.0000    0.0000 N   0  0  0  0  0  0  0  0  0  0  0  0
    1.0000   -1.0000    0.0000 C   0  0  0  0  0  0  0  0  0  0  0  0
    1.7071    0.7071    0.0000 C   0  0  0  0  0  0  0  0  0  0  0  0
    1.4483    1.6730    0.0000 C   0  0  0  0  0  0  0  0  0  0  0  0
    2.1554    2.3801    0.0000 C   0  0  0  0  0  0  0  0  0  0  0  0
    3.1213    2.1213    0.0000 C   0  0  0  0  0  0  0  0  0  0  0  0
    3.3801    1.1554    0.0000 C   0  0  0  0  0  0  0  0  0  0  0  0
    2.6730    0.4483    0.0000 C   0  0  0  0  0  0  0  0  0  0  0  0
    3.8284    2.8284    0.0000 F   0  0  0  0  0  0  0  0  0  0  0  0
    1.8966    3.3461    0.0000 F   0  0  0  0  0  0  0  0  0  0  0  0
   -0.7071   -1.7071    0.0000 O   0  0  0  0  0  0  0  0  0  0  0  0
   -0.4483   -2.6730    0.0000 C   0  0  0  0  0  0  0  0  0  0  0  0
    0.5176   -2.9319    0.0000 C   0  0  0  0  0  0  0  0  0  0  0  0
    0.7765   -3.8978    0.0000 N   0  0  0  0  0  0  0  0  0  0  0  0
    0.0694   -4.6049    0.0000 C   0  0  0  0  0  0  0  0  0  0  0  0
   -0.8966   -4.3461    0.0000 C   0  0  0  0  0  0  0  0  0  0  0  0
   -1.1554   -3.3801    0.0000 N   0  0  0  0  0  0  0  0  0  0  0  0
   -2.1540   -3.3278    0.0000 C   0  0  0  0  0  0  0  0  0  0  0  0
   -2.5124   -4.2614    0.0000 N   0  0  0  0  0  0  0  0  0  0  0  0
   -1.7352   -4.8907    0.0000 N   0  0  0  0  0  0  0  0  0  0  0  0
   -2.6987   -2.4891    0.0000 C   0  0  0  0  0  0  0  0  0  0  0  0
   -3.6973   -2.5415    0.0000 C   0  0  0  0  0  0  0  0  0  0  0  0
   -4.2419   -1.7028    0.0000 C   0  0  0  0  0  0  0  0  0  0  0  0
   -3.7879   -0.8118    0.0000 C   0  0  0  0  0  0  0  0  0  0  0  0
   -2.7893   -0.7595    0.0000 C   0  0  0  0  0  0  0  0  0  0  0  0
   -2.2447   -1.5981    0.0000 C   0  0  0  0  0  0  0  0  0  0  0  0
   -4.3326    0.0269    0.0000 O   0  0  0  0  0  0  0  0  0  0  0  0
   -5.3312   -0.0255    0.0000 C   0  0  0  0  0  0  0  0  0  0  0  0
   -5.8758    0.8132    0.0000 F   0  0  0  0  0  0  0  0  0  0  0  0
   -5.7852   -0.9165    0.0000 F   0  0  0  0  0  0  0  0  0  0  0  0
  1  4  1  0  0  0  0
  1  2  1  0  0  0  0
  1 13  1  0  0  0  0
  2  3  1  0  0  0  0
  3  4  1  0  0  0  0
  3  5  1  0  0  0  0
  5 10  1  0  0  0  0
  5  6  2  0  0  0  0
  6  7  1  0  0  0  0
  7  8  2  0  0  0  0
  7 12  1  0  0  0  0
  8  9  1  0  0  0  0
  8 11  1  0  0  0  0
  9 10  2  0  0  0  0
 13 14  1  0  0  0  0
 14 19  1  0  0  0  0
 14 15  2  0  0  0  0
 15 16  1  0  0  0  0
 16 17  2  0  0  0  0
 17 18  1  0  0  0  0
 18 22  2  0  0  0  0
 18 19  1  0  0  0  0
 19 20  1  0  0  0  0
 20 21  2  0  0  0  0
 20 23  1  0  0  0  0
 21 22  1  0  0  0  0
 23 28  1  0  0  0  0
 23 24  2  0  0  0  0
 24 25  1  0  0  0  0
 25 26  2  0  0  0  0
 26 27  1  0  0  0  0
 26 29  1  0  0  0  0
 27 28  2  0  0  0  0
 29 30  1  0  0  0  0
 30 31  1  0  0  0  0
 30 32  1  0  0  0  0
M  END
> <MW>
445.38

> <EC50>
0.43

$$$$
