MMV672619
 OpenBabel06241423362D

 38 43  0  0  1  0  0  0  0  0999 V2000
    0.0000   -1.0000    0.0000 C   0  0  2  0  0  0  0  0  0  0  0  0
   -0.9659   -1.2588    0.0000 H   0  0  0  0  0  0  0  0  0  0  0  0
    0.0000    0.0000    0.0000 C   0  0  0  0  0  0  0  0  0  0  0  0
    1.0000    0.0000    0.0000 N   0  0  0  0  0  0  0  0  0  0  0  0
    1.0000   -1.0000    0.0000 C   0  0  2  0  0  0  0  0  0  0  0  0
    1.2588   -1.9659    0.0000 H   0  0  0  0  0  0  0  0  0  0  0  0
    1.9659   -1.2588    0.0000 C   0  0  0  0  0  0  0  0  0  0  0  0
    2.6730   -0.5517    0.0000 C   0  0  0  0  0  0  0  0  0  0  0  0
    3.6390   -0.8105    0.0000 C   0  0  0  0  0  0  0  0  0  0  0  0
    3.8978   -1.7765    0.0000 C   0  0  0  0  0  0  0  0  0  0  0  0
    3.1907   -2.4836    0.0000 C   0  0  0  0  0  0  0  0  0  0  0  0
    2.2247   -2.2247    0.0000 C   0  0  0  0  0  0  0  0  0  0  0  0
    4.8637   -2.0353    0.0000 F   0  0  0  0  0  0  0  0  0  0  0  0
    4.3461   -0.1034    0.0000 F   0  0  0  0  0  0  0  0  0  0  0  0
    1.7071    0.7071    0.0000 C   0  0  0  0  0  0  0  0  0  0  0  0
    1.9659    1.6730    0.0000 C   0  0  0  0  0  0  0  0  0  0  0  0
    2.6730    0.9659    0.0000 C   0  0  0  0  0  0  0  0  0  0  0  0
   -0.7071    0.7071    0.0000 O   0  0  0  0  0  0  0  0  0  0  0  0
   -0.2588   -1.9659    0.0000 O   0  0  0  0  0  0  0  0  0  0  0  0
   -1.2247   -2.2247    0.0000 C   0  0  0  0  0  0  0  0  0  0  0  0
   -1.4836   -3.1907    0.0000 N   0  0  0  0  0  0  0  0  0  0  0  0
   -2.4495   -3.4495    0.0000 C   0  0  0  0  0  0  0  0  0  0  0  0
   -3.1566   -2.7424    0.0000 C   0  0  0  0  0  0  0  0  0  0  0  0
   -2.8978   -1.7765    0.0000 N   0  0  0  0  0  0  0  0  0  0  0  0
   -1.9319   -1.5176    0.0000 C   0  0  0  0  0  0  0  0  0  0  0  0
   -3.7364   -1.2318    0.0000 C   0  0  0  0  0  0  0  0  0  0  0  0
   -4.5136   -1.8611    0.0000 N   0  0  0  0  0  0  0  0  0  0  0  0
   -4.1552   -2.7947    0.0000 N   0  0  0  0  0  0  0  0  0  0  0  0
   -3.7888   -0.2332    0.0000 C   0  0  0  0  0  0  0  0  0  0  0  0
   -4.6798    0.2208    0.0000 C   0  0  0  0  0  0  0  0  0  0  0  0
   -4.7321    1.2194    0.0000 C   0  0  0  0  0  0  0  0  0  0  0  0
   -3.8935    1.7641    0.0000 C   0  0  0  0  0  0  0  0  0  0  0  0
   -3.0024    1.3101    0.0000 C   0  0  0  0  0  0  0  0  0  0  0  0
   -2.9501    0.3115    0.0000 C   0  0  0  0  0  0  0  0  0  0  0  0
   -3.9458    2.7627    0.0000 O   0  0  0  0  0  0  0  0  0  0  0  0
   -3.1071    3.3073    0.0000 C   0  0  0  0  0  0  0  0  0  0  0  0
   -2.2161    2.8533    0.0000 F   0  0  0  0  0  0  0  0  0  0  0  0
   -3.1595    4.3060    0.0000 F   0  0  0  0  0  0  0  0  0  0  0  0
  1  2  1  1  0  0  0
  1  5  1  0  0  0  0
  1  3  1  0  0  0  0
  1 19  1  0  0  0  0
  3  4  1  0  0  0  0
  3 18  2  0  0  0  0
  4  5  1  0  0  0  0
  4 15  1  0  0  0  0
  5  6  1  1  0  0  0
  5  7  1  0  0  0  0
  7 12  1  0  0  0  0
  7  8  2  0  0  0  0
  8  9  1  0  0  0  0
  9 10  2  0  0  0  0
  9 14  1  0  0  0  0
 10 11  1  0  0  0  0
 10 13  1  0  0  0  0
 11 12  2  0  0  0  0
 15 17  1  0  0  0  0
 15 16  1  0  0  0  0
 16 17  1  0  0  0  0
 19 20  1  0  0  0  0
 20 25  2  0  0  0  0
 20 21  1  0  0  0  0
 21 22  2  0  0  0  0
 22 23  1  0  0  0  0
 23 28  2  0  0  0  0
 23 24  1  0  0  0  0
 24 25  1  0  0  0  0
 24 26  1  0  0  0  0
 26 27  2  0  0  0  0
 26 29  1  0  0  0  0
 27 28  1  0  0  0  0
 29 34  1  0  0  0  0
 29 30  2  0  0  0  0
 30 31  1  0  0  0  0
 31 32  2  0  0  0  0
 32 33  1  0  0  0  0
 32 35  1  0  0  0  0
 33 34  2  0  0  0  0
 35 36  1  0  0  0  0
 36 37  1  0  0  0  0
 36 38  1  0  0  0  0
M  END
> <MW>
499.42

> <EC50>
10

$$$$
