MMV669006
 OpenBabel06241423362D

 29 32  0  0  0  0  0  0  0  0999 V2000
   -4.2793   -2.4190    0.0000 C   0  0  0  0  0  0  0  0  0  0  0  0
   -4.2793   -3.4190    0.0000 N   0  0  0  0  0  0  0  0  0  0  0  0
   -3.4133   -3.9190    0.0000 C   0  0  0  0  0  0  0  0  0  0  0  0
   -2.5472   -3.4190    0.0000 C   0  0  0  0  0  0  0  0  0  0  0  0
   -2.5472   -2.4190    0.0000 N   0  0  0  0  0  0  0  0  0  0  0  0
   -3.4133   -1.9190    0.0000 C   0  0  0  0  0  0  0  0  0  0  0  0
   -3.4133   -0.9190    0.0000 O   0  0  0  0  0  0  0  0  0  0  0  0
   -4.2793   -0.4190    0.0000 C   0  0  0  0  0  0  0  0  0  0  0  0
   -5.1453   -0.9190    0.0000 C   0  0  0  0  0  0  0  0  0  0  0  0
   -6.0113   -0.4190    0.0000 C   0  0  0  0  0  0  0  0  0  0  0  0
   -6.0113    0.5810    0.0000 C   0  0  0  0  0  0  0  0  0  0  0  0
   -6.8774    1.0810    0.0000 C   0  0  0  0  0  0  0  0  0  0  0  0
   -7.7434    0.5810    0.0000 C   0  0  0  0  0  0  0  0  0  0  0  0
   -7.7434   -0.4190    0.0000 C   0  0  0  0  0  0  0  0  0  0  0  0
   -6.8774   -0.9190    0.0000 C   0  0  0  0  0  0  0  0  0  0  0  0
   -8.6094    1.0810    0.0000 F   0  0  0  0  0  0  0  0  0  0  0  0
   -6.8774    2.0810    0.0000 F   0  0  0  0  0  0  0  0  0  0  0  0
   -1.5962   -2.1100    0.0000 C   0  0  0  0  0  0  0  0  0  0  0  0
   -1.0084   -2.9190    0.0000 N   0  0  0  0  0  0  0  0  0  0  0  0
   -1.5962   -3.7281    0.0000 N   0  0  0  0  0  0  0  0  0  0  0  0
   -1.2872   -1.1590    0.0000 N   0  0  0  0  0  0  0  0  0  0  0  0
   -0.3090   -0.9511    0.0000 C   0  0  0  0  0  0  0  0  0  0  0  0
    0.3601   -1.6942    0.0000 C   0  0  0  0  0  0  0  0  0  0  0  0
    1.3383   -1.4863    0.0000 C   0  0  0  0  0  0  0  0  0  0  0  0
    1.6473   -0.5352    0.0000 C   0  0  0  0  0  0  0  0  0  0  0  0
    0.9781    0.2079    0.0000 C   0  0  0  0  0  0  0  0  0  0  0  0
    0.0000    0.0000    0.0000 C   0  0  0  0  0  0  0  0  0  0  0  0
    2.6254   -0.3273    0.0000 F   0  0  0  0  0  0  0  0  0  0  0  0
    2.0074   -2.2294    0.0000 F   0  0  0  0  0  0  0  0  0  0  0  0
  1  6  2  0  0  0  0
  1  2  1  0  0  0  0
  2  3  2  0  0  0  0
  3  4  1  0  0  0  0
  4 20  2  0  0  0  0
  4  5  1  0  0  0  0
  5  6  1  0  0  0  0
  5 18  1  0  0  0  0
  6  7  1  0  0  0  0
  7  8  1  0  0  0  0
  8  9  1  0  0  0  0
  9 10  1  0  0  0  0
 10 15  1  0  0  0  0
 10 11  2  0  0  0  0
 11 12  1  0  0  0  0
 12 13  2  0  0  0  0
 12 17  1  0  0  0  0
 13 14  1  0  0  0  0
 13 16  1  0  0  0  0
 14 15  2  0  0  0  0
 18 19  2  0  0  0  0
 18 21  1  0  0  0  0
 19 20  1  0  0  0  0
 21 22  1  0  0  0  0
 22 27  1  0  0  0  0
 22 23  2  0  0  0  0
 23 24  1  0  0  0  0
 24 25  2  0  0  0  0
 24 29  1  0  0  0  0
 25 26  1  0  0  0  0
 25 28  1  0  0  0  0
 26 27  2  0  0  0  0
M  END
> <MW>
403.34

> <EC50>
0.85

$$$$
