MMV668957
 OpenBabel06241423362D

 30 34  0  0  1  0  0  0  0  0999 V2000
    1.8749   -3.7951    0.0000 C   0  0  0  0  0  0  0  0  0  0  0  0
    2.8695   -3.6905    0.0000 N   0  0  0  0  0  0  0  0  0  0  0  0
    3.2762   -2.7770    0.0000 C   0  0  0  0  0  0  0  0  0  0  0  0
    2.6884   -1.9680    0.0000 C   0  0  0  0  0  0  0  0  0  0  0  0
    1.6939   -2.0725    0.0000 N   0  0  0  0  0  0  0  0  0  0  0  0
    1.2872   -2.9861    0.0000 C   0  0  0  0  0  0  0  0  0  0  0  0
    0.2926   -3.0906    0.0000 N   0  0  0  0  0  0  0  0  0  0  0  0
   -0.2074   -3.9566    0.0000 C   0  0  0  0  0  0  0  0  0  0  0  0
   -1.1855   -3.7487    0.0000 C   0  0  0  0  0  0  0  0  0  0  0  0
   -1.2900   -2.7542    0.0000 C   0  0  3  0  0  0  0  0  0  0  0  0
   -0.3765   -2.3474    0.0000 C   0  0  0  0  0  0  0  0  0  0  0  0
   -2.1561   -2.2542    0.0000 C   0  0  0  0  0  0  0  0  0  0  0  0
   -3.0221   -2.7542    0.0000 C   0  0  0  0  0  0  0  0  0  0  0  0
   -3.8881   -2.2542    0.0000 C   0  0  0  0  0  0  0  0  0  0  0  0
   -3.8881   -1.2542    0.0000 C   0  0  0  0  0  0  0  0  0  0  0  0
   -3.0221   -0.7542    0.0000 C   0  0  0  0  0  0  0  0  0  0  0  0
   -2.1561   -1.2542    0.0000 C   0  0  0  0  0  0  0  0  0  0  0  0
    1.2872   -1.1590    0.0000 C   0  0  0  0  0  0  0  0  0  0  0  0
    2.0303   -0.4898    0.0000 N   0  0  0  0  0  0  0  0  0  0  0  0
    2.8963   -0.9898    0.0000 N   0  0  0  0  0  0  0  0  0  0  0  0
    0.3090   -0.9511    0.0000 C   0  0  0  0  0  0  0  0  0  0  0  0
   -0.3601   -1.6942    0.0000 C   0  0  0  0  0  0  0  0  0  0  0  0
   -1.3383   -1.4863    0.0000 C   0  0  0  0  0  0  0  0  0  0  0  0
   -1.6473   -0.5352    0.0000 C   0  0  0  0  0  0  0  0  0  0  0  0
   -0.9781    0.2079    0.0000 C   0  0  0  0  0  0  0  0  0  0  0  0
    0.0000    0.0000    0.0000 C   0  0  0  0  0  0  0  0  0  0  0  0
   -2.6254   -0.3273    0.0000 O   0  0  0  0  0  0  0  0  0  0  0  0
   -2.9344    0.6237    0.0000 C   0  0  0  0  0  0  0  0  0  0  0  0
   -2.2653    1.3669    0.0000 F   0  0  0  0  0  0  0  0  0  0  0  0
   -3.9126    0.8316    0.0000 F   0  0  0  0  0  0  0  0  0  0  0  0
  1  6  2  0  0  0  0
  1  2  1  0  0  0  0
  2  3  2  0  0  0  0
  3  4  1  0  0  0  0
  4 20  2  0  0  0  0
  4  5  1  0  0  0  0
  5  6  1  0  0  0  0
  5 18  1  0  0  0  0
  6  7  1  0  0  0  0
  7 11  1  0  0  0  0
  7  8  1  0  0  0  0
  8  9  1  0  0  0  0
  9 10  1  0  0  0  0
 10 11  1  0  0  0  0
 10 12  1  0  0  0  0
 12 17  1  0  0  0  0
 12 13  2  0  0  0  0
 13 14  1  0  0  0  0
 14 15  2  0  0  0  0
 15 16  1  0  0  0  0
 16 17  2  0  0  0  0
 18 19  2  0  0  0  0
 18 21  1  0  0  0  0
 19 20  1  0  0  0  0
 21 26  1  0  0  0  0
 21 22  2  0  0  0  0
 22 23  1  0  0  0  0
 23 24  2  0  0  0  0
 24 25  1  0  0  0  0
 24 27  1  0  0  0  0
 25 26  2  0  0  0  0
 27 28  1  0  0  0  0
 28 29  1  0  0  0  0
 28 30  1  0  0  0  0
M  END
> <MW>
407.42

> <EC50>
2

$$$$
