MMV670762
 OpenBabel06241423362D

 25 27  0  0  0  0  0  0  0  0999 V2000
    3.9328   -1.5657    0.0000 C   0  0  0  0  0  0  0  0  0  0  0  0
    4.6019   -0.8226    0.0000 N   0  0  0  0  0  0  0  0  0  0  0  0
    4.2929    0.1285    0.0000 C   0  0  0  0  0  0  0  0  0  0  0  0
    3.3147    0.3364    0.0000 C   0  0  0  0  0  0  0  0  0  0  0  0
    2.6456   -0.4067    0.0000 N   0  0  0  0  0  0  0  0  0  0  0  0
    2.9546   -1.3578    0.0000 C   0  0  0  0  0  0  0  0  0  0  0  0
    2.2855   -2.1009    0.0000 O   0  0  0  0  0  0  0  0  0  0  0  0
    2.5945   -3.0520    0.0000 C   0  0  0  0  0  0  0  0  0  0  0  0
    1.9254   -3.7951    0.0000 C   0  0  0  0  0  0  0  0  0  0  0  0
    1.7175   -4.7733    0.0000 F   0  0  0  0  0  0  0  0  0  0  0  0
    2.6685   -4.4643    0.0000 F   0  0  0  0  0  0  0  0  0  0  0  0
    0.9472   -3.5872    0.0000 F   0  0  0  0  0  0  0  0  0  0  0  0
    1.7321    0.0000    0.0000 C   0  0  0  0  0  0  0  0  0  0  0  0
    1.8366    0.9945    0.0000 N   0  0  0  0  0  0  0  0  0  0  0  0
    2.8147    1.2024    0.0000 N   0  0  0  0  0  0  0  0  0  0  0  0
    0.8660   -0.5000    0.0000 C   0  0  0  0  0  0  0  0  0  0  0  0
    0.8660   -1.5000    0.0000 C   0  0  0  0  0  0  0  0  0  0  0  0
    0.0000   -2.0000    0.0000 C   0  0  0  0  0  0  0  0  0  0  0  0
   -0.8660   -1.5000    0.0000 C   0  0  0  0  0  0  0  0  0  0  0  0
   -0.8660   -0.5000    0.0000 C   0  0  0  0  0  0  0  0  0  0  0  0
    0.0000    0.0000    0.0000 C   0  0  0  0  0  0  0  0  0  0  0  0
   -1.7321   -2.0000    0.0000 O   0  0  0  0  0  0  0  0  0  0  0  0
   -2.5981   -1.5000    0.0000 C   0  0  0  0  0  0  0  0  0  0  0  0
   -2.5981   -0.5000    0.0000 F   0  0  0  0  0  0  0  0  0  0  0  0
   -3.4641   -2.0000    0.0000 F   0  0  0  0  0  0  0  0  0  0  0  0
  1  6  2  0  0  0  0
  1  2  1  0  0  0  0
  2  3  2  0  0  0  0
  3  4  1  0  0  0  0
  4 15  2  0  0  0  0
  4  5  1  0  0  0  0
  5  6  1  0  0  0  0
  5 13  1  0  0  0  0
  6  7  1  0  0  0  0
  7  8  1  0  0  0  0
  8  9  1  0  0  0  0
  9 10  1  0  0  0  0
  9 11  1  0  0  0  0
  9 12  1  0  0  0  0
 13 14  2  0  0  0  0
 13 16  1  0  0  0  0
 14 15  1  0  0  0  0
 16 21  1  0  0  0  0
 16 17  2  0  0  0  0
 17 18  1  0  0  0  0
 18 19  2  0  0  0  0
 19 20  1  0  0  0  0
 19 22  1  0  0  0  0
 20 21  2  0  0  0  0
 22 23  1  0  0  0  0
 23 24  1  0  0  0  0
 23 25  1  0  0  0  0
M  END
> <MW>
360.24

> <EC50>
10

$$$$
