MMV669305
 OpenBabel06241423362D

 27 30  0  0  0  0  0  0  0  0999 V2000
   -0.7138   -3.1723    0.0000 C   0  0  0  0  0  0  0  0  0  0  0  0
   -1.5798   -2.6723    0.0000 C   0  0  0  0  0  0  0  0  0  0  0  0
   -2.4459   -3.1723    0.0000 C   0  0  0  0  0  0  0  0  0  0  0  0
   -3.3119   -2.6723    0.0000 N   0  0  0  0  0  0  0  0  0  0  0  0
   -4.1779   -3.1723    0.0000 C   0  0  0  0  0  0  0  0  0  0  0  0
   -5.0440   -2.6723    0.0000 C   0  0  0  0  0  0  0  0  0  0  0  0
   -5.0440   -1.6723    0.0000 O   0  0  0  0  0  0  0  0  0  0  0  0
   -4.1779   -1.1723    0.0000 C   0  0  0  0  0  0  0  0  0  0  0  0
   -3.3119   -1.6723    0.0000 C   0  0  0  0  0  0  0  0  0  0  0  0
   -0.7138   -4.1723    0.0000 C   0  0  0  0  0  0  0  0  0  0  0  0
    0.1522   -4.6723    0.0000 N   0  0  0  0  0  0  0  0  0  0  0  0
    1.0182   -4.1723    0.0000 C   0  0  0  0  0  0  0  0  0  0  0  0
    1.0182   -3.1723    0.0000 C   0  0  0  0  0  0  0  0  0  0  0  0
    0.1522   -2.6723    0.0000 N   0  0  0  0  0  0  0  0  0  0  0  0
    0.3601   -1.6942    0.0000 C   0  0  0  0  0  0  0  0  0  0  0  0
    1.3546   -1.5897    0.0000 N   0  0  0  0  0  0  0  0  0  0  0  0
    1.7614   -2.5032    0.0000 N   0  0  0  0  0  0  0  0  0  0  0  0
   -0.3090   -0.9511    0.0000 C   0  0  0  0  0  0  0  0  0  0  0  0
   -1.2872   -1.1590    0.0000 C   0  0  0  0  0  0  0  0  0  0  0  0
   -1.9563   -0.4158    0.0000 C   0  0  0  0  0  0  0  0  0  0  0  0
   -1.6473    0.5352    0.0000 C   0  0  0  0  0  0  0  0  0  0  0  0
   -0.6691    0.7431    0.0000 C   0  0  0  0  0  0  0  0  0  0  0  0
    0.0000    0.0000    0.0000 C   0  0  0  0  0  0  0  0  0  0  0  0
   -2.3164    1.2784    0.0000 O   0  0  0  0  0  0  0  0  0  0  0  0
   -2.0074    2.2294    0.0000 C   0  0  0  0  0  0  0  0  0  0  0  0
   -1.0292    2.4373    0.0000 F   0  0  0  0  0  0  0  0  0  0  0  0
   -2.6765    2.9726    0.0000 F   0  0  0  0  0  0  0  0  0  0  0  0
  1 14  1  0  0  0  0
  1  2  1  0  0  0  0
  1 10  2  0  0  0  0
  2  3  1  0  0  0  0
  3  4  1  0  0  0  0
  4  9  1  0  0  0  0
  4  5  1  0  0  0  0
  5  6  1  0  0  0  0
  6  7  1  0  0  0  0
  7  8  1  0  0  0  0
  8  9  1  0  0  0  0
 10 11  1  0  0  0  0
 11 12  2  0  0  0  0
 12 13  1  0  0  0  0
 13 17  2  0  0  0  0
 13 14  1  0  0  0  0
 14 15  1  0  0  0  0
 15 16  2  0  0  0  0
 15 18  1  0  0  0  0
 16 17  1  0  0  0  0
 18 23  1  0  0  0  0
 18 19  2  0  0  0  0
 19 20  1  0  0  0  0
 20 21  2  0  0  0  0
 21 22  1  0  0  0  0
 21 24  1  0  0  0  0
 22 23  2  0  0  0  0
 24 25  1  0  0  0  0
 25 26  1  0  0  0  0
 25 27  1  0  0  0  0
M  END
> <MW>
375.38

> <EC50>
10

$$$$
