MMV671933
 OpenBabel06241423362D

 37 42  0  0  1  0  0  0  0  0999 V2000
    0.0000   -1.0000    0.0000 C   0  0  2  0  0  0  0  0  0  0  0  0
   -0.9659   -1.2588    0.0000 H   0  0  0  0  0  0  0  0  0  0  0  0
    0.0000    0.0000    0.0000 C   0  0  1  0  0  0  0  0  0  0  0  0
   -0.2588    0.9659    0.0000 H   0  0  0  0  0  0  0  0  0  0  0  0
    1.0000    0.0000    0.0000 N   0  0  3  0  0  0  0  0  0  0  0  0
    1.0000   -1.0000    0.0000 C   0  0  0  0  0  0  0  0  0  0  0  0
    1.7071    0.7071    0.0000 C   0  0  0  0  0  0  0  0  0  0  0  0
    1.9659    1.6730    0.0000 C   0  0  0  0  0  0  0  0  0  0  0  0
    2.6730    0.9659    0.0000 C   0  0  0  0  0  0  0  0  0  0  0  0
   -0.9659    0.2588    0.0000 C   0  0  0  0  0  0  0  0  0  0  0  0
   -1.2247    1.2247    0.0000 C   0  0  0  0  0  0  0  0  0  0  0  0
   -2.1907    1.4836    0.0000 C   0  0  0  0  0  0  0  0  0  0  0  0
   -2.8978    0.7765    0.0000 C   0  0  0  0  0  0  0  0  0  0  0  0
   -2.6390   -0.1895    0.0000 C   0  0  0  0  0  0  0  0  0  0  0  0
   -1.6730   -0.4483    0.0000 C   0  0  0  0  0  0  0  0  0  0  0  0
   -3.8637    1.0353    0.0000 F   0  0  0  0  0  0  0  0  0  0  0  0
   -2.4495    2.4495    0.0000 F   0  0  0  0  0  0  0  0  0  0  0  0
   -0.2588   -1.9659    0.0000 O   0  0  0  0  0  0  0  0  0  0  0  0
    0.4483   -2.6730    0.0000 C   0  0  0  0  0  0  0  0  0  0  0  0
    1.4142   -2.4142    0.0000 C   0  0  0  0  0  0  0  0  0  0  0  0
    2.1213   -3.1213    0.0000 N   0  0  0  0  0  0  0  0  0  0  0  0
    1.8625   -4.0872    0.0000 C   0  0  0  0  0  0  0  0  0  0  0  0
    0.8966   -4.3461    0.0000 C   0  0  0  0  0  0  0  0  0  0  0  0
    0.1895   -3.6390    0.0000 N   0  0  0  0  0  0  0  0  0  0  0  0
   -0.7015   -4.0929    0.0000 C   0  0  0  0  0  0  0  0  0  0  0  0
   -0.5451   -5.0806    0.0000 N   0  0  0  0  0  0  0  0  0  0  0  0
    0.4426   -5.2371    0.0000 N   0  0  0  0  0  0  0  0  0  0  0  0
   -1.5925   -3.6390    0.0000 C   0  0  0  0  0  0  0  0  0  0  0  0
   -2.4312   -4.1836    0.0000 C   0  0  0  0  0  0  0  0  0  0  0  0
   -3.3222   -3.7296    0.0000 C   0  0  0  0  0  0  0  0  0  0  0  0
   -3.3746   -2.7310    0.0000 C   0  0  0  0  0  0  0  0  0  0  0  0
   -2.5359   -2.1863    0.0000 C   0  0  0  0  0  0  0  0  0  0  0  0
   -1.6449   -2.6403    0.0000 C   0  0  0  0  0  0  0  0  0  0  0  0
   -4.2656   -2.2770    0.0000 O   0  0  0  0  0  0  0  0  0  0  0  0
   -4.3179   -1.2784    0.0000 C   0  0  0  0  0  0  0  0  0  0  0  0
   -3.4792   -0.7337    0.0000 F   0  0  0  0  0  0  0  0  0  0  0  0
   -5.2089   -0.8244    0.0000 F   0  0  0  0  0  0  0  0  0  0  0  0
  1  2  1  1  0  0  0
  1  6  1  0  0  0  0
  1  3  1  0  0  0  0
  1 18  1  0  0  0  0
  3  4  1  1  0  0  0
  3  5  1  0  0  0  0
  3 10  1  0  0  0  0
  5  6  1  0  0  0  0
  5  7  1  0  0  0  0
  7  9  1  0  0  0  0
  7  8  1  0  0  0  0
  8  9  1  0  0  0  0
 10 15  1  0  0  0  0
 10 11  2  0  0  0  0
 11 12  1  0  0  0  0
 12 13  2  0  0  0  0
 12 17  1  0  0  0  0
 13 14  1  0  0  0  0
 13 16  1  0  0  0  0
 14 15  2  0  0  0  0
 18 19  1  0  0  0  0
 19 24  1  0  0  0  0
 19 20  2  0  0  0  0
 20 21  1  0  0  0  0
 21 22  2  0  0  0  0
 22 23  1  0  0  0  0
 23 27  2  0  0  0  0
 23 24  1  0  0  0  0
 24 25  1  0  0  0  0
 25 26  2  0  0  0  0
 25 28  1  0  0  0  0
 26 27  1  0  0  0  0
 28 33  1  0  0  0  0
 28 29  2  0  0  0  0
 29 30  1  0  0  0  0
 30 31  2  0  0  0  0
 31 32  1  0  0  0  0
 31 34  1  0  0  0  0
 32 33  2  0  0  0  0
 34 35  1  0  0  0  0
 35 36  1  0  0  0  0
 35 37  1  0  0  0  0
M  END
> <MW>
485.44

> <EC50>
0.6095

$$$$
