MMV669850
 OpenBabel06241423362D

 30 33  0  0  0  0  0  0  0  0999 V2000
    2.3230   -2.0032    0.0000 C   0  0  0  0  0  0  0  0  0  0  0  0
    2.3230   -3.0032    0.0000 N   0  0  0  0  0  0  0  0  0  0  0  0
    1.4570   -3.5032    0.0000 C   0  0  0  0  0  0  0  0  0  0  0  0
    0.5909   -3.0032    0.0000 C   0  0  0  0  0  0  0  0  0  0  0  0
   -0.3601   -3.3122    0.0000 N   0  0  0  0  0  0  0  0  0  0  0  0
   -0.9479   -2.5032    0.0000 N   0  0  0  0  0  0  0  0  0  0  0  0
   -0.3601   -1.6942    0.0000 C   0  0  0  0  0  0  0  0  0  0  0  0
    0.5909   -2.0032    0.0000 N   0  0  0  0  0  0  0  0  0  0  0  0
    1.4570   -1.5032    0.0000 C   0  0  0  0  0  0  0  0  0  0  0  0
    1.4570   -0.5032    0.0000 C   0  0  0  0  0  0  0  0  0  0  0  0
    2.3230   -0.0032    0.0000 N   0  0  0  0  0  0  0  0  0  0  0  0
    3.1890   -0.5032    0.0000 C   0  0  0  0  0  0  0  0  0  0  0  0
    4.0550   -0.0032    0.0000 C   0  0  0  0  0  0  0  0  0  0  0  0
    4.9211   -0.5032    0.0000 C   0  0  0  0  0  0  0  0  0  0  0  0
    4.9211   -1.5032    0.0000 C   0  0  0  0  0  0  0  0  0  0  0  0
    4.0550   -2.0032    0.0000 C   0  0  0  0  0  0  0  0  0  0  0  0
    3.1890   -1.5032    0.0000 C   0  0  0  0  0  0  0  0  0  0  0  0
    4.0550   -3.0032    0.0000 F   0  0  0  0  0  0  0  0  0  0  0  0
    5.7871   -2.0032    0.0000 F   0  0  0  0  0  0  0  0  0  0  0  0
    0.5909   -0.0032    0.0000 O   0  0  0  0  0  0  0  0  0  0  0  0
   -0.6691   -0.7431    0.0000 C   0  0  0  0  0  0  0  0  0  0  0  0
   -1.6473   -0.5352    0.0000 C   0  0  0  0  0  0  0  0  0  0  0  0
   -1.9563    0.4158    0.0000 C   0  0  0  0  0  0  0  0  0  0  0  0
   -1.2872    1.1590    0.0000 C   0  0  0  0  0  0  0  0  0  0  0  0
   -0.3090    0.9511    0.0000 C   0  0  0  0  0  0  0  0  0  0  0  0
    0.0000    0.0000    0.0000 C   0  0  0  0  0  0  0  0  0  0  0  0
   -1.5962    2.1100    0.0000 O   0  0  0  0  0  0  0  0  0  0  0  0
   -2.5743    2.3179    0.0000 C   0  0  0  0  0  0  0  0  0  0  0  0
   -2.8833    3.2690    0.0000 F   0  0  0  0  0  0  0  0  0  0  0  0
   -3.2435    1.5748    0.0000 F   0  0  0  0  0  0  0  0  0  0  0  0
  1  9  2  0  0  0  0
  1  2  1  0  0  0  0
  2  3  2  0  0  0  0
  3  4  1  0  0  0  0
  4  8  1  0  0  0  0
  4  5  2  0  0  0  0
  5  6  1  0  0  0  0
  6  7  2  0  0  0  0
  7  8  1  0  0  0  0
  7 21  1  0  0  0  0
  8  9  1  0  0  0  0
  9 10  1  0  0  0  0
 10 11  1  0  0  0  0
 10 20  2  0  0  0  0
 11 12  1  0  0  0  0
 12 17  1  0  0  0  0
 12 13  2  0  0  0  0
 13 14  1  0  0  0  0
 14 15  2  0  0  0  0
 15 16  1  0  0  0  0
 15 19  1  0  0  0  0
 16 17  2  0  0  0  0
 16 18  1  0  0  0  0
 21 26  1  0  0  0  0
 21 22  2  0  0  0  0
 22 23  1  0  0  0  0
 23 24  2  0  0  0  0
 24 25  1  0  0  0  0
 24 27  1  0  0  0  0
 25 26  2  0  0  0  0
 27 28  1  0  0  0  0
 28 29  1  0  0  0  0
 28 30  1  0  0  0  0
M  END
> <MW>
417.32

> <EC50>
0.65

$$$$
