MMV669544
 OpenBabel06241423362D

 30 33  0  0  0  0  0  0  0  0999 V2000
    0.0000    1.0000    0.0000 C    0  0  0  0  0  0  0  0  0  0  0  0
   -0.8660    1.5000    0.0000 C    0  0  0  0  0  0  0  0  0  0  0  0
   -1.7321    1.0000    0.0000 N    0  0  0  0  0  0  0  0  0  0  0  0
   -1.7321    0.0000    0.0000 C    0  0  0  0  0  0  0  0  0  0  0  0
   -2.5981   -0.5000    0.0000 C    0  0  0  0  0  0  0  0  0  0  0  0
   -3.4641    0.0000    0.0000 C    0  0  0  0  0  0  0  0  0  0  0  0
   -4.3301   -0.5000    0.0000 N    0  0  0  0  0  0  0  0  0  0  0  0
   -4.3301   -1.5000    0.0000 C    0  0  0  0  0  0  0  0  0  0  0  0
   -3.4641   -2.0000    0.0000 C    0  0  0  0  0  0  0  0  0  0  0  0
   -2.5981   -1.5000    0.0000 N    0  0  0  0  0  0  0  0  0  0  0  0
   -1.8549   -2.1691    0.0000 C    0  0  0  0  0  0  0  0  0  0  0  0
   -2.2617   -3.0827    0.0000 N    0  0  0  0  0  0  0  0  0  0  0  0
   -3.2562   -2.9781    0.0000 N    0  0  0  0  0  0  0  0  0  0  0  0
   -0.8768   -1.9612    0.0000 C    0  0  0  0  0  0  0  0  0  0  0  0
   -0.5678   -1.0102    0.0000 C    0  0  0  0  0  0  0  0  0  0  0  0
    0.4104   -0.8023    0.0000 C    0  0  0  0  0  0  0  0  0  0  0  0
    1.0795   -1.5454    0.0000 C    0  0  0  0  0  0  0  0  0  0  0  0
    0.7705   -2.4965    0.0000 C    0  0  0  0  0  0  0  0  0  0  0  0
   -0.2077   -2.7044    0.0000 C    0  0  0  0  0  0  0  0  0  0  0  0
    2.0577   -1.3375    0.0000 O    0  0  0  0  0  0  0  0  0  0  0  0
    2.7268   -2.0806    0.0000 C    0  0  0  0  0  0  0  0  0  0  0  0
    2.4178   -3.0317    0.0000 F    0  0  0  0  0  0  0  0  0  0  0  0
    3.7049   -1.8727    0.0000 F    0  0  0  0  0  0  0  0  0  0  0  0
   -0.8660    2.5000    0.0000 O    0  0  0  0  0  0  0  0  0  0  0  0
    0.8660    1.5000    0.0000 C    0  0  0  0  0  0  0  0  0  0  0  0
    1.7321    1.0000    0.0000 C    0  0  0  0  0  0  0  0  0  0  0  0
    1.7321    0.0000    0.0000 C    0  0  0  0  0  0  0  0  0  0  0  0
    0.8660   -0.5000    0.0000 C    0  0  0  0  0  0  0  0  0  0  0  0
    0.0000    0.0000    0.0000 C    0  0  0  0  0  0  0  0  0  0  0  0
    2.5981    1.5000    0.0000 Cl   0  0  0  0  0  0  0  0  0  0  0  0
  1 29  1  0  0  0  0
  1  2  1  0  0  0  0
  1 25  2  0  0  0  0
  2  3  1  0  0  0  0
  2 24  2  0  0  0  0
  3  4  1  0  0  0  0
  4  5  1  0  0  0  0
  5 10  1  0  0  0  0
  5  6  2  0  0  0  0
  6  7  1  0  0  0  0
  7  8  2  0  0  0  0
  8  9  1  0  0  0  0
  9 13  2  0  0  0  0
  9 10  1  0  0  0  0
 10 11  1  0  0  0  0
 11 12  2  0  0  0  0
 11 14  1  0  0  0  0
 12 13  1  0  0  0  0
 14 19  1  0  0  0  0
 14 15  2  0  0  0  0
 15 16  1  0  0  0  0
 16 17  2  0  0  0  0
 17 18  1  0  0  0  0
 17 20  1  0  0  0  0
 18 19  2  0  0  0  0
 20 21  1  0  0  0  0
 21 22  1  0  0  0  0
 21 23  1  0  0  0  0
 25 26  1  0  0  0  0
 26 27  2  0  0  0  0
 26 30  1  0  0  0  0
 27 28  1  0  0  0  0
 28 29  2  0  0  0  0
M  END
> <MW>
429.81

> <EC50>
10

$$$$
