MMV671647
 OpenBabel06241423362D

 36 40  0  0  1  0  0  0  0  0999 V2000
    0.5733   -3.0134    0.0000 C   0  0  0  0  0  0  0  0  0  0  0  0
    1.4394   -3.5134    0.0000 N   0  0  0  0  0  0  0  0  0  0  0  0
    2.3054   -3.0134    0.0000 C   0  0  0  0  0  0  0  0  0  0  0  0
    2.3054   -2.0134    0.0000 C   0  0  0  0  0  0  0  0  0  0  0  0
    1.4394   -1.5134    0.0000 N   0  0  0  0  0  0  0  0  0  0  0  0
    0.5733   -2.0134    0.0000 C   0  0  0  0  0  0  0  0  0  0  0  0
   -0.2927   -1.5134    0.0000 O   0  0  0  0  0  0  0  0  0  0  0  0
   -1.1587   -2.0134    0.0000 C   0  0  0  0  0  0  0  0  0  0  0  0
   -2.0247   -1.5134    0.0000 C   0  0  3  0  0  0  0  0  0  0  0  0
   -2.0247   -0.5134    0.0000 C   0  0  0  0  0  0  0  0  0  0  0  0
   -2.8908   -0.0134    0.0000 C   0  0  0  0  0  0  0  0  0  0  0  0
   -2.8908    0.9866    0.0000 C   0  0  0  0  0  0  0  0  0  0  0  0
   -2.0247    1.4866    0.0000 C   0  0  0  0  0  0  0  0  0  0  0  0
   -1.1587    0.9866    0.0000 C   0  0  0  0  0  0  0  0  0  0  0  0
   -1.1587   -0.0134    0.0000 C   0  0  0  0  0  0  0  0  0  0  0  0
   -2.0247    2.4866    0.0000 F   0  0  0  0  0  0  0  0  0  0  0  0
   -3.7568    1.4866    0.0000 F   0  0  0  0  0  0  0  0  0  0  0  0
   -2.8908   -2.0134    0.0000 N   0  0  0  0  0  0  0  0  0  0  0  0
   -2.8908   -3.0134    0.0000 C   0  0  0  0  0  0  0  0  0  0  0  0
   -3.7568   -3.5134    0.0000 C   0  0  0  0  0  0  0  0  0  0  0  0
   -4.6228   -3.0134    0.0000 O   0  0  0  0  0  0  0  0  0  0  0  0
   -4.6228   -2.0134    0.0000 C   0  0  0  0  0  0  0  0  0  0  0  0
   -3.7568   -1.5134    0.0000 C   0  0  0  0  0  0  0  0  0  0  0  0
    1.6473   -0.5352    0.0000 C   0  0  0  0  0  0  0  0  0  0  0  0
    2.6418   -0.4307    0.0000 N   0  0  0  0  0  0  0  0  0  0  0  0
    3.0485   -1.3443    0.0000 N   0  0  0  0  0  0  0  0  0  0  0  0
    0.9781    0.2079    0.0000 C   0  0  0  0  0  0  0  0  0  0  0  0
    1.2872    1.1590    0.0000 C   0  0  0  0  0  0  0  0  0  0  0  0
    0.6180    1.9021    0.0000 C   0  0  0  0  0  0  0  0  0  0  0  0
   -0.3601    1.6942    0.0000 C   0  0  0  0  0  0  0  0  0  0  0  0
   -0.6691    0.7431    0.0000 C   0  0  0  0  0  0  0  0  0  0  0  0
    0.0000    0.0000    0.0000 C   0  0  0  0  0  0  0  0  0  0  0  0
   -1.0292    2.4373    0.0000 O   0  0  0  0  0  0  0  0  0  0  0  0
   -0.7202    3.3884    0.0000 C   0  0  0  0  0  0  0  0  0  0  0  0
   -1.3894    4.1315    0.0000 F   0  0  0  0  0  0  0  0  0  0  0  0
    0.2579    3.5963    0.0000 F   0  0  0  0  0  0  0  0  0  0  0  0
  1  6  2  0  0  0  0
  1  2  1  0  0  0  0
  2  3  2  0  0  0  0
  3  4  1  0  0  0  0
  4 26  2  0  0  0  0
  4  5  1  0  0  0  0
  5  6  1  0  0  0  0
  5 24  1  0  0  0  0
  6  7  1  0  0  0  0
  7  8  1  0  0  0  0
  8  9  1  0  0  0  0
  9 10  1  0  0  0  0
  9 18  1  0  0  0  0
 10 15  1  0  0  0  0
 10 11  2  0  0  0  0
 11 12  1  0  0  0  0
 12 13  2  0  0  0  0
 12 17  1  0  0  0  0
 13 14  1  0  0  0  0
 13 16  1  0  0  0  0
 14 15  2  0  0  0  0
 18 23  1  0  0  0  0
 18 19  1  0  0  0  0
 19 20  1  0  0  0  0
 20 21  1  0  0  0  0
 21 22  1  0  0  0  0
 22 23  1  0  0  0  0
 24 25  2  0  0  0  0
 24 27  1  0  0  0  0
 25 26  1  0  0  0  0
 27 32  1  0  0  0  0
 27 28  2  0  0  0  0
 28 29  1  0  0  0  0
 29 30  2  0  0  0  0
 30 31  1  0  0  0  0
 30 33  1  0  0  0  0
 31 32  2  0  0  0  0
 33 34  1  0  0  0  0
 34 35  1  0  0  0  0
 34 36  1  0  0  0  0
M  END
> <MW>
503.46

> <EC50>
0.6133

$$$$
