MMV672625
 OpenBabel06241423362D

 36 40  0  0  0  0  0  0  0  0999 V2000
    5.5276    2.6831    0.0000 C   0  0  0  0  0  0  0  0  0  0  0  0
    5.5276    3.6587    0.0000 N   0  0  0  0  0  0  0  0  0  0  0  0
    4.6827    4.1465    0.0000 C   0  0  0  0  0  0  0  0  0  0  0  0
    3.8377    3.6587    0.0000 C   0  0  0  0  0  0  0  0  0  0  0  0
    3.8377    2.6831    0.0000 N   0  0  0  0  0  0  0  0  0  0  0  0
    4.6827    2.1953    0.0000 C   0  0  0  0  0  0  0  0  0  0  0  0
    4.6827    0.2440    0.0000 C   0  0  0  0  0  0  0  0  0  0  0  0
    3.8377   -0.2438    0.0000 O   0  0  0  0  0  0  0  0  0  0  0  0
    5.5276   -0.2438    0.0000 N   0  0  0  0  0  0  0  0  0  0  0  0
    5.5276   -1.2194    0.0000 C   0  0  0  0  0  0  0  0  0  0  0  0
    6.3725   -1.7072    0.0000 C   0  0  0  0  0  0  0  0  0  0  0  0
    6.3725   -2.6828    0.0000 C   0  0  0  0  0  0  0  0  0  0  0  0
    5.5276   -3.1706    0.0000 N   0  0  0  0  0  0  0  0  0  0  0  0
    4.6827   -2.6828    0.0000 C   0  0  0  0  0  0  0  0  0  0  0  0
    4.6827   -1.7072    0.0000 C   0  0  0  0  0  0  0  0  0  0  0  0
    3.8377   -3.1706    0.0000 C   0  0  0  0  0  0  0  0  0  0  0  0
    3.3499   -4.0155    0.0000 F   0  0  0  0  0  0  0  0  0  0  0  0
    4.3256   -4.0155    0.0000 F   0  0  0  0  0  0  0  0  0  0  0  0
    2.9928   -2.6828    0.0000 F   0  0  0  0  0  0  0  0  0  0  0  0
    2.9099    2.3816    0.0000 C   0  0  0  0  0  0  0  0  0  0  0  0
    2.3364    3.1709    0.0000 N   0  0  0  0  0  0  0  0  0  0  0  0
    2.9099    3.9602    0.0000 N   0  0  0  0  0  0  0  0  0  0  0  0
    2.6084    1.4537    0.0000 C   0  0  0  0  0  0  0  0  0  0  0  0
    3.1819    0.6644    0.0000 C   0  0  0  0  0  0  0  0  0  0  0  0
    2.6084   -0.1248    0.0000 N   0  0  0  0  0  0  0  0  0  0  0  0
    1.6805    0.1766    0.0000 N   0  0  0  0  0  0  0  0  0  0  0  0
    1.6805    1.1522    0.0000 C   0  0  0  0  0  0  0  0  0  0  0  0
    0.8913    1.7257    0.0000 C   0  0  0  0  0  0  0  0  0  0  0  0
    0.8913   -0.3968    0.0000 C   0  0  0  0  0  0  0  0  0  0  0  0
    0.9932   -1.3671    0.0000 C   0  0  0  0  0  0  0  0  0  0  0  0
    0.2040   -1.9405    0.0000 C   0  0  0  0  0  0  0  0  0  0  0  0
   -0.6873   -1.5437    0.0000 C   0  0  0  0  0  0  0  0  0  0  0  0
   -0.7893   -0.5734    0.0000 C   0  0  0  0  0  0  0  0  0  0  0  0
    0.0000    0.0000    0.0000 C   0  0  0  0  0  0  0  0  0  0  0  0
   -1.4766   -2.1172    0.0000 F   0  0  0  0  0  0  0  0  0  0  0  0
    4.1575    0.6644    0.0000 C   0  0  0  0  0  0  0  0  0  0  0  0
  1  6  2  0  0  0  0
  1  2  1  0  0  0  0
  2  3  2  0  0  0  0
  3  4  1  0  0  0  0
  4 22  2  0  0  0  0
  4  5  1  0  0  0  0
  5  6  1  0  0  0  0
  5 20  1  0  0  0  0
  6  7  1  0  0  0  0
  7  8  2  0  0  0  0
  7  9  1  0  0  0  0
  9 10  1  0  0  0  0
 10 15  1  0  0  0  0
 10 11  2  0  0  0  0
 11 12  1  0  0  0  0
 12 13  2  0  0  0  0
 13 14  1  0  0  0  0
 14 15  2  0  0  0  0
 14 16  1  0  0  0  0
 16 17  1  0  0  0  0
 16 18  1  0  0  0  0
 16 19  1  0  0  0  0
 20 21  2  0  0  0  0
 20 23  1  0  0  0  0
 21 22  1  0  0  0  0
 23 27  2  0  0  0  0
 23 24  1  0  0  0  0
 24 25  2  0  0  0  0
 24 36  1  0  0  0  0
 25 26  1  0  0  0  0
 26 27  1  0  0  0  0
 26 29  1  0  0  0  0
 27 28  1  0  0  0  0
 29 34  1  0  0  0  0
 29 30  2  0  0  0  0
 30 31  1  0  0  0  0
 31 32  2  0  0  0  0
 32 33  1  0  0  0  0
 32 35  1  0  0  0  0
 33 34  2  0  0  0  0
M  END
> <MW>
496.43

> <EC50>
10

$$$$
