MMV669022
 OpenBabel06241423362D

 26 29  0  0  0  0  0  0  0  0999 V2000
    3.9328   -1.5657    0.0000 C   0  0  0  0  0  0  0  0  0  0  0  0
    4.6019   -0.8226    0.0000 N   0  0  0  0  0  0  0  0  0  0  0  0
    4.2929    0.1285    0.0000 C   0  0  0  0  0  0  0  0  0  0  0  0
    3.3147    0.3364    0.0000 C   0  0  0  0  0  0  0  0  0  0  0  0
    2.6456   -0.4067    0.0000 N   0  0  0  0  0  0  0  0  0  0  0  0
    2.9546   -1.3578    0.0000 C   0  0  0  0  0  0  0  0  0  0  0  0
    2.2855   -2.1009    0.0000 C   0  0  0  0  0  0  0  0  0  0  0  0
    2.5945   -3.0520    0.0000 N   0  0  0  0  0  0  0  0  0  0  0  0
    2.0067   -3.8610    0.0000 C   0  0  0  0  0  0  0  0  0  0  0  0
    2.5945   -4.6700    0.0000 C   0  0  0  0  0  0  0  0  0  0  0  0
    3.5456   -4.3610    0.0000 C   0  0  0  0  0  0  0  0  0  0  0  0
    3.5456   -3.3610    0.0000 C   0  0  0  0  0  0  0  0  0  0  0  0
    1.3073   -1.8930    0.0000 O   0  0  0  0  0  0  0  0  0  0  0  0
    1.7321    0.0000    0.0000 C   0  0  0  0  0  0  0  0  0  0  0  0
    1.8366    0.9945    0.0000 N   0  0  0  0  0  0  0  0  0  0  0  0
    2.8147    1.2024    0.0000 N   0  0  0  0  0  0  0  0  0  0  0  0
    0.8660   -0.5000    0.0000 C   0  0  0  0  0  0  0  0  0  0  0  0
    0.8660   -1.5000    0.0000 C   0  0  0  0  0  0  0  0  0  0  0  0
    0.0000   -2.0000    0.0000 C   0  0  0  0  0  0  0  0  0  0  0  0
   -0.8660   -1.5000    0.0000 C   0  0  0  0  0  0  0  0  0  0  0  0
   -0.8660   -0.5000    0.0000 C   0  0  0  0  0  0  0  0  0  0  0  0
    0.0000    0.0000    0.0000 C   0  0  0  0  0  0  0  0  0  0  0  0
   -1.7321   -2.0000    0.0000 O   0  0  0  0  0  0  0  0  0  0  0  0
   -2.5981   -1.5000    0.0000 C   0  0  0  0  0  0  0  0  0  0  0  0
   -2.5981   -0.5000    0.0000 F   0  0  0  0  0  0  0  0  0  0  0  0
   -3.4641   -2.0000    0.0000 F   0  0  0  0  0  0  0  0  0  0  0  0
  1  6  2  0  0  0  0
  1  2  1  0  0  0  0
  2  3  2  0  0  0  0
  3  4  1  0  0  0  0
  4 16  2  0  0  0  0
  4  5  1  0  0  0  0
  5  6  1  0  0  0  0
  5 14  1  0  0  0  0
  6  7  1  0  0  0  0
  7  8  1  0  0  0  0
  7 13  2  0  0  0  0
  8 12  1  0  0  0  0
  8  9  1  0  0  0  0
  9 10  1  0  0  0  0
 10 11  1  0  0  0  0
 11 12  1  0  0  0  0
 14 15  2  0  0  0  0
 14 17  1  0  0  0  0
 15 16  1  0  0  0  0
 17 22  1  0  0  0  0
 17 18  2  0  0  0  0
 18 19  1  0  0  0  0
 19 20  2  0  0  0  0
 20 21  1  0  0  0  0
 20 23  1  0  0  0  0
 21 22  2  0  0  0  0
 23 24  1  0  0  0  0
 24 25  1  0  0  0  0
 24 26  1  0  0  0  0
M  END
> <MW>
359.34

> <EC50>
10

$$$$
