MMV671929
 OpenBabel06241423362D

 32 36  0  0  0  0  0  0  0  0999 V2000
    5.6359   -0.6170    0.0000 C    0  0  0  0  0  0  0  0  0  0  0  0
    6.5019   -0.1170    0.0000 N    0  0  0  0  0  0  0  0  0  0  0  0
    6.5019    0.8830    0.0000 C    0  0  0  0  0  0  0  0  0  0  0  0
    5.6359    1.3830    0.0000 C    0  0  0  0  0  0  0  0  0  0  0  0
    4.7698    0.8830    0.0000 N    0  0  0  0  0  0  0  0  0  0  0  0
    4.7698   -0.1170    0.0000 C    0  0  0  0  0  0  0  0  0  0  0  0
    3.9038   -0.6170    0.0000 O    0  0  0  0  0  0  0  0  0  0  0  0
    3.9038   -1.6170    0.0000 C    0  0  0  0  0  0  0  0  0  0  0  0
    4.7698   -2.1170    0.0000 C    0  0  0  0  0  0  0  0  0  0  0  0
    4.7698   -3.1170    0.0000 C    0  0  0  0  0  0  0  0  0  0  0  0
    3.9038   -3.6170    0.0000 C    0  0  0  0  0  0  0  0  0  0  0  0
    3.0378   -3.1170    0.0000 C    0  0  0  0  0  0  0  0  0  0  0  0
    3.0378   -2.1170    0.0000 C    0  0  0  0  0  0  0  0  0  0  0  0
    2.1718   -3.6170    0.0000 Cl   0  0  0  0  0  0  0  0  0  0  0  0
    3.9038   -4.6170    0.0000 Cl   0  0  0  0  0  0  0  0  0  0  0  0
    4.0267    1.5522    0.0000 C    0  0  0  0  0  0  0  0  0  0  0  0
    4.4334    2.4657    0.0000 N    0  0  0  0  0  0  0  0  0  0  0  0
    5.4279    2.3612    0.0000 N    0  0  0  0  0  0  0  0  0  0  0  0
    3.0485    1.3443    0.0000 C    0  0  0  0  0  0  0  0  0  0  0  0
    2.6418    0.4307    0.0000 C    0  0  0  0  0  0  0  0  0  0  0  0
    1.6473    0.5352    0.0000 N    0  0  0  0  0  0  0  0  0  0  0  0
    1.4394    1.5134    0.0000 N    0  0  0  0  0  0  0  0  0  0  0  0
    2.3054    2.0134    0.0000 C    0  0  0  0  0  0  0  0  0  0  0  0
    2.4099    3.0079    0.0000 C    0  0  0  0  0  0  0  0  0  0  0  0
    0.9781   -0.2079    0.0000 C    0  0  0  0  0  0  0  0  0  0  0  0
    1.2872   -1.1590    0.0000 C    0  0  0  0  0  0  0  0  0  0  0  0
    0.6180   -1.9021    0.0000 C    0  0  0  0  0  0  0  0  0  0  0  0
   -0.3601   -1.6942    0.0000 C    0  0  0  0  0  0  0  0  0  0  0  0
   -0.6691   -0.7431    0.0000 C    0  0  0  0  0  0  0  0  0  0  0  0
    0.0000    0.0000    0.0000 C    0  0  0  0  0  0  0  0  0  0  0  0
   -1.0292   -2.4373    0.0000 F    0  0  0  0  0  0  0  0  0  0  0  0
    3.1418   -0.4353    0.0000 C    0  0  0  0  0  0  0  0  0  0  0  0
  1  6  2  0  0  0  0
  1  2  1  0  0  0  0
  2  3  2  0  0  0  0
  3  4  1  0  0  0  0
  4 18  2  0  0  0  0
  4  5  1  0  0  0  0
  5  6  1  0  0  0  0
  5 16  1  0  0  0  0
  6  7  1  0  0  0  0
  7  8  1  0  0  0  0
  8 13  1  0  0  0  0
  8  9  2  0  0  0  0
  9 10  1  0  0  0  0
 10 11  2  0  0  0  0
 11 12  1  0  0  0  0
 11 15  1  0  0  0  0
 12 13  2  0  0  0  0
 12 14  1  0  0  0  0
 16 17  2  0  0  0  0
 16 19  1  0  0  0  0
 17 18  1  0  0  0  0
 19 23  1  0  0  0  0
 19 20  2  0  0  0  0
 20 21  1  0  0  0  0
 20 32  1  0  0  0  0
 21 22  1  0  0  0  0
 21 25  1  0  0  0  0
 22 23  2  0  0  0  0
 23 24  1  0  0  0  0
 25 30  1  0  0  0  0
 25 26  2  0  0  0  0
 26 27  1  0  0  0  0
 27 28  2  0  0  0  0
 28 29  1  0  0  0  0
 28 31  1  0  0  0  0
 29 30  2  0  0  0  0
M  END
> <MW>
469.31

> <EC50>
10

$$$$
