MMV668822
 OpenBabel06241423362D

 31 34  0  0  0  0  0  0  0  0999 V2000
   -0.7138   -4.1723    0.0000 C   0  0  0  0  0  0  0  0  0  0  0  0
    0.1522   -4.6723    0.0000 N   0  3  0  0  0  0  0  0  0  0  0  0
    1.0182   -4.1723    0.0000 C   0  0  0  0  0  0  0  0  0  0  0  0
    1.0182   -3.1723    0.0000 C   0  0  0  0  0  0  0  0  0  0  0  0
    0.1522   -2.6723    0.0000 N   0  0  0  0  0  0  0  0  0  0  0  0
   -0.7138   -3.1723    0.0000 C   0  0  0  0  0  0  0  0  0  0  0  0
   -1.5798   -2.6723    0.0000 O   0  0  0  0  0  0  0  0  0  0  0  0
   -2.4459   -3.1723    0.0000 C   0  0  0  0  0  0  0  0  0  0  0  0
   -3.3119   -2.6723    0.0000 C   0  0  0  0  0  0  0  0  0  0  0  0
   -4.1779   -3.1723    0.0000 C   0  0  0  0  0  0  0  0  0  0  0  0
   -4.1779   -4.1723    0.0000 C   0  0  0  0  0  0  0  0  0  0  0  0
   -5.0440   -4.6723    0.0000 C   0  0  0  0  0  0  0  0  0  0  0  0
   -5.9100   -4.1723    0.0000 C   0  0  0  0  0  0  0  0  0  0  0  0
   -5.9100   -3.1723    0.0000 C   0  0  0  0  0  0  0  0  0  0  0  0
   -5.0440   -2.6723    0.0000 C   0  0  0  0  0  0  0  0  0  0  0  0
   -6.7760   -4.6723    0.0000 F   0  0  0  0  0  0  0  0  0  0  0  0
   -5.0440   -5.6723    0.0000 F   0  0  0  0  0  0  0  0  0  0  0  0
    0.3601   -1.6942    0.0000 C   0  0  0  0  0  0  0  0  0  0  0  0
    1.3546   -1.5897    0.0000 N   0  0  0  0  0  0  0  0  0  0  0  0
    1.7614   -2.5032    0.0000 N   0  0  0  0  0  0  0  0  0  0  0  0
   -0.3090   -0.9511    0.0000 C   0  0  0  0  0  0  0  0  0  0  0  0
   -1.2872   -1.1590    0.0000 C   0  0  0  0  0  0  0  0  0  0  0  0
   -1.9563   -0.4158    0.0000 C   0  0  0  0  0  0  0  0  0  0  0  0
   -1.6473    0.5352    0.0000 C   0  0  0  0  0  0  0  0  0  0  0  0
   -0.6691    0.7431    0.0000 C   0  0  0  0  0  0  0  0  0  0  0  0
    0.0000    0.0000    0.0000 C   0  0  0  0  0  0  0  0  0  0  0  0
   -2.3164    1.2784    0.0000 O   0  0  0  0  0  0  0  0  0  0  0  0
   -2.0074    2.2294    0.0000 C   0  0  0  0  0  0  0  0  0  0  0  0
   -1.0292    2.4373    0.0000 F   0  0  0  0  0  0  0  0  0  0  0  0
   -2.6765    2.9726    0.0000 F   0  0  0  0  0  0  0  0  0  0  0  0
    0.1522   -5.6723    0.0000 O   0  5  0  0  0  0  0  0  0  0  0  0
  1  6  2  0  0  0  0
  1  2  1  0  0  0  0
  2  3  2  0  0  0  0
  2 31  1  0  0  0  0
  3  4  1  0  0  0  0
  4 20  2  0  0  0  0
  4  5  1  0  0  0  0
  5  6  1  0  0  0  0
  5 18  1  0  0  0  0
  6  7  1  0  0  0  0
  7  8  1  0  0  0  0
  8  9  1  0  0  0  0
  9 10  1  0  0  0  0
 10 15  1  0  0  0  0
 10 11  2  0  0  0  0
 11 12  1  0  0  0  0
 12 13  2  0  0  0  0
 12 17  1  0  0  0  0
 13 14  1  0  0  0  0
 13 16  1  0  0  0  0
 14 15  2  0  0  0  0
 18 19  2  0  0  0  0
 18 21  1  0  0  0  0
 19 20  1  0  0  0  0
 21 26  1  0  0  0  0
 21 22  2  0  0  0  0
 22 23  1  0  0  0  0
 23 24  2  0  0  0  0
 24 25  1  0  0  0  0
 24 27  1  0  0  0  0
 25 26  2  0  0  0  0
 27 28  1  0  0  0  0
 28 29  1  0  0  0  0
 28 30  1  0  0  0  0
M  END
> <MW>
434.35

> <EC50>
4.01

$$$$
MMV668823
 OpenBabel06241423362D

 31 34  0  0  0  0  0  0  0  0999 V2000
    0.7138    4.1723    0.0000 C    0  0  0  0  0  0  0  0  0  0  0  0
   -0.1522    4.6723    0.0000 N    0  0  0  0  0  0  0  0  0  0  0  0
   -1.0182    4.1723    0.0000 C    0  0  0  0  0  0  0  0  0  0  0  0
   -1.0182    3.1723    0.0000 C    0  0  0  0  0  0  0  0  0  0  0  0
   -0.1522    2.6723    0.0000 N    0  0  0  0  0  0  0  0  0  0  0  0
    0.7138    3.1723    0.0000 C    0  0  0  0  0  0  0  0  0  0  0  0
    1.5798    2.6723    0.0000 O    0  0  0  0  0  0  0  0  0  0  0  0
    2.4459    3.1723    0.0000 C    0  0  0  0  0  0  0  0  0  0  0  0
    3.3119    2.6723    0.0000 C    0  0  0  0  0  0  0  0  0  0  0  0
    4.1779    3.1723    0.0000 C    0  0  0  0  0  0  0  0  0  0  0  0
    4.1779    4.1723    0.0000 C    0  0  0  0  0  0  0  0  0  0  0  0
    5.0440    4.6723    0.0000 C    0  0  0  0  0  0  0  0  0  0  0  0
    5.9100    4.1723    0.0000 C    0  0  0  0  0  0  0  0  0  0  0  0
    5.9100    3.1723    0.0000 C    0  0  0  0  0  0  0  0  0  0  0  0
    5.0440    2.6723    0.0000 C    0  0  0  0  0  0  0  0  0  0  0  0
    6.7760    4.6723    0.0000 F    0  0  0  0  0  0  0  0  0  0  0  0
    5.0440    5.6723    0.0000 F    0  0  0  0  0  0  0  0  0  0  0  0
   -0.3601    1.6942    0.0000 C    0  0  0  0  0  0  0  0  0  0  0  0
   -1.3546    1.5897    0.0000 N    0  0  0  0  0  0  0  0  0  0  0  0
   -1.7614    2.5032    0.0000 N    0  0  0  0  0  0  0  0  0  0  0  0
    0.3090    0.9511    0.0000 C    0  0  0  0  0  0  0  0  0  0  0  0
    1.2872    1.1590    0.0000 C    0  0  0  0  0  0  0  0  0  0  0  0
    1.9563    0.4158    0.0000 C    0  0  0  0  0  0  0  0  0  0  0  0
    1.6473   -0.5352    0.0000 C    0  0  0  0  0  0  0  0  0  0  0  0
    0.6691   -0.7431    0.0000 C    0  0  0  0  0  0  0  0  0  0  0  0
    0.0000    0.0000    0.0000 C    0  0  0  0  0  0  0  0  0  0  0  0
    2.3164   -1.2784    0.0000 O    0  0  0  0  0  0  0  0  0  0  0  0
    2.0074   -2.2294    0.0000 C    0  0  0  0  0  0  0  0  0  0  0  0
    1.0292   -2.4373    0.0000 F    0  0  0  0  0  0  0  0  0  0  0  0
    2.6765   -2.9726    0.0000 F    0  0  0  0  0  0  0  0  0  0  0  0
   -1.8843    4.6723    0.0000 Cl   0  0  0  0  0  0  0  0  0  0  0  0
  1  6  2  0  0  0  0
  1  2  1  0  0  0  0
  2  3  2  0  0  0  0
  3  4  1  0  0  0  0
  3 31  1  0  0  0  0
  4 20  2  0  0  0  0
  4  5  1  0  0  0  0
  5  6  1  0  0  0  0
  5 18  1  0  0  0  0
  6  7  1  0  0  0  0
  7  8  1  0  0  0  0
  8  9  1  0  0  0  0
  9 10  1  0  0  0  0
 10 15  1  0  0  0  0
 10 11  2  0  0  0  0
 11 12  1  0  0  0  0
 12 13  2  0  0  0  0
 12 17  1  0  0  0  0
 13 14  1  0  0  0  0
 13 16  1  0  0  0  0
 14 15  2  0  0  0  0
 18 19  2  0  0  0  0
 18 21  1  0  0  0  0
 19 20  1  0  0  0  0
 21 26  1  0  0  0  0
 21 22  2  0  0  0  0
 22 23  1  0  0  0  0
 23 24  2  0  0  0  0
 24 25  1  0  0  0  0
 24 27  1  0  0  0  0
 25 26  2  0  0  0  0
 27 28  1  0  0  0  0
 28 29  1  0  0  0  0
 28 30  1  0  0  0  0
M  END
> <MW>
452.79

> <EC50>
0.16

$$$$
MMV668824
 OpenBabel06241423362D

 22 24  0  0  0  0  0  0  0  0999 V2000
    3.9328   -1.5657    0.0000 C   0  0  0  0  0  0  0  0  0  0  0  0
    4.6019   -0.8226    0.0000 N   0  0  0  0  0  0  0  0  0  0  0  0
    4.2929    0.1285    0.0000 C   0  0  0  0  0  0  0  0  0  0  0  0
    3.3147    0.3364    0.0000 C   0  0  0  0  0  0  0  0  0  0  0  0
    2.6456   -0.4067    0.0000 N   0  0  0  0  0  0  0  0  0  0  0  0
    2.9546   -1.3578    0.0000 C   0  0  0  0  0  0  0  0  0  0  0  0
    2.2855   -2.1009    0.0000 C   0  0  0  0  0  0  0  0  0  0  0  0
    2.5945   -3.0520    0.0000 C   0  0  0  0  0  0  0  0  0  0  0  0
    1.9254   -3.7951    0.0000 O   0  0  0  0  0  0  0  0  0  0  0  0
    1.7321    0.0000    0.0000 C   0  0  0  0  0  0  0  0  0  0  0  0
    1.8366    0.9945    0.0000 N   0  0  0  0  0  0  0  0  0  0  0  0
    2.8147    1.2024    0.0000 N   0  0  0  0  0  0  0  0  0  0  0  0
    0.8660   -0.5000    0.0000 C   0  0  0  0  0  0  0  0  0  0  0  0
    0.8660   -1.5000    0.0000 C   0  0  0  0  0  0  0  0  0  0  0  0
    0.0000   -2.0000    0.0000 C   0  0  0  0  0  0  0  0  0  0  0  0
   -0.8660   -1.5000    0.0000 C   0  0  0  0  0  0  0  0  0  0  0  0
   -0.8660   -0.5000    0.0000 C   0  0  0  0  0  0  0  0  0  0  0  0
    0.0000    0.0000    0.0000 C   0  0  0  0  0  0  0  0  0  0  0  0
   -1.7321   -2.0000    0.0000 O   0  0  0  0  0  0  0  0  0  0  0  0
   -2.5981   -1.5000    0.0000 C   0  0  0  0  0  0  0  0  0  0  0  0
   -2.5981   -0.5000    0.0000 F   0  0  0  0  0  0  0  0  0  0  0  0
   -3.4641   -2.0000    0.0000 F   0  0  0  0  0  0  0  0  0  0  0  0
  1  6  2  0  0  0  0
  1  2  1  0  0  0  0
  2  3  2  0  0  0  0
  3  4  1  0  0  0  0
  4 12  2  0  0  0  0
  4  5  1  0  0  0  0
  5  6  1  0  0  0  0
  5 10  1  0  0  0  0
  6  7  1  0  0  0  0
  7  8  1  0  0  0  0
  8  9  1  0  0  0  0
 10 11  2  0  0  0  0
 10 13  1  0  0  0  0
 11 12  1  0  0  0  0
 13 18  1  0  0  0  0
 13 14  2  0  0  0  0
 14 15  1  0  0  0  0
 15 16  2  0  0  0  0
 16 17  1  0  0  0  0
 16 19  1  0  0  0  0
 17 18  2  0  0  0  0
 19 20  1  0  0  0  0
 20 21  1  0  0  0  0
 20 22  1  0  0  0  0
M  END
> <MW>
306.27

> <EC50>
10

$$$$
MMV668955
 OpenBabel06241423362D

 22 24  0  0  1  0  0  0  0  0999 V2000
    3.9328   -1.5657    0.0000 C   0  0  0  0  0  0  0  0  0  0  0  0
    4.6019   -0.8226    0.0000 N   0  0  0  0  0  0  0  0  0  0  0  0
    4.2929    0.1285    0.0000 C   0  0  0  0  0  0  0  0  0  0  0  0
    3.3147    0.3364    0.0000 C   0  0  0  0  0  0  0  0  0  0  0  0
    2.6456   -0.4067    0.0000 N   0  0  0  0  0  0  0  0  0  0  0  0
    2.9546   -1.3578    0.0000 C   0  0  3  0  0  0  0  0  0  0  0  0
    2.2855   -2.1009    0.0000 C   0  0  0  0  0  0  0  0  0  0  0  0
    2.5945   -3.0520    0.0000 C   0  0  0  0  0  0  0  0  0  0  0  0
    1.9254   -3.7951    0.0000 O   0  0  0  0  0  0  0  0  0  0  0  0
    1.7321    0.0000    0.0000 C   0  0  0  0  0  0  0  0  0  0  0  0
    1.8366    0.9945    0.0000 N   0  0  0  0  0  0  0  0  0  0  0  0
    2.8147    1.2024    0.0000 N   0  0  0  0  0  0  0  0  0  0  0  0
    0.8660   -0.5000    0.0000 C   0  0  0  0  0  0  0  0  0  0  0  0
    0.8660   -1.5000    0.0000 C   0  0  0  0  0  0  0  0  0  0  0  0
    0.0000   -2.0000    0.0000 C   0  0  0  0  0  0  0  0  0  0  0  0
   -0.8660   -1.5000    0.0000 C   0  0  0  0  0  0  0  0  0  0  0  0
   -0.8660   -0.5000    0.0000 C   0  0  0  0  0  0  0  0  0  0  0  0
    0.0000    0.0000    0.0000 C   0  0  0  0  0  0  0  0  0  0  0  0
   -1.7321   -2.0000    0.0000 O   0  0  0  0  0  0  0  0  0  0  0  0
   -2.5981   -1.5000    0.0000 C   0  0  0  0  0  0  0  0  0  0  0  0
   -2.5981   -0.5000    0.0000 F   0  0  0  0  0  0  0  0  0  0  0  0
   -3.4641   -2.0000    0.0000 F   0  0  0  0  0  0  0  0  0  0  0  0
  1  6  1  0  0  0  0
  1  2  1  0  0  0  0
  2  3  1  0  0  0  0
  3  4  1  0  0  0  0
  4 12  2  0  0  0  0
  4  5  1  0  0  0  0
  5  6  1  0  0  0  0
  5 10  1  0  0  0  0
  6  7  1  0  0  0  0
  7  8  1  0  0  0  0
  8  9  1  0  0  0  0
 10 11  2  0  0  0  0
 10 13  1  0  0  0  0
 11 12  1  0  0  0  0
 13 18  1  0  0  0  0
 13 14  2  0  0  0  0
 14 15  1  0  0  0  0
 15 16  2  0  0  0  0
 16 17  1  0  0  0  0
 16 19  1  0  0  0  0
 17 18  2  0  0  0  0
 19 20  1  0  0  0  0
 20 21  1  0  0  0  0
 20 22  1  0  0  0  0
M  END
> <MW>
310.3

> <EC50>
8.37

$$$$
MMV668956
 OpenBabel06241423362D

 32 36  0  0  0  0  0  0  0  0999 V2000
    0.0000   -1.0000    0.0000 C   0  0  0  0  0  0  0  0  0  0  0  0
    0.0000    0.0000    0.0000 C   0  0  0  0  0  0  0  0  0  0  0  0
    1.0000    0.0000    0.0000 N   0  0  0  0  0  0  0  0  0  0  0  0
    1.0000   -1.0000    0.0000 C   0  0  0  0  0  0  0  0  0  0  0  0
    1.7071    0.7071    0.0000 C   0  0  0  0  0  0  0  0  0  0  0  0
    1.4483    1.6730    0.0000 C   0  0  0  0  0  0  0  0  0  0  0  0
    2.1554    2.3801    0.0000 C   0  0  0  0  0  0  0  0  0  0  0  0
    3.1213    2.1213    0.0000 C   0  0  0  0  0  0  0  0  0  0  0  0
    3.3801    1.1554    0.0000 C   0  0  0  0  0  0  0  0  0  0  0  0
    2.6730    0.4483    0.0000 C   0  0  0  0  0  0  0  0  0  0  0  0
    3.8284    2.8284    0.0000 F   0  0  0  0  0  0  0  0  0  0  0  0
    1.8966    3.3461    0.0000 F   0  0  0  0  0  0  0  0  0  0  0  0
   -0.7071   -1.7071    0.0000 O   0  0  0  0  0  0  0  0  0  0  0  0
   -0.4483   -2.6730    0.0000 C   0  0  0  0  0  0  0  0  0  0  0  0
    0.5176   -2.9319    0.0000 C   0  0  0  0  0  0  0  0  0  0  0  0
    0.7765   -3.8978    0.0000 N   0  0  0  0  0  0  0  0  0  0  0  0
    0.0694   -4.6049    0.0000 C   0  0  0  0  0  0  0  0  0  0  0  0
   -0.8966   -4.3461    0.0000 C   0  0  0  0  0  0  0  0  0  0  0  0
   -1.1554   -3.3801    0.0000 N   0  0  0  0  0  0  0  0  0  0  0  0
   -2.1540   -3.3278    0.0000 C   0  0  0  0  0  0  0  0  0  0  0  0
   -2.5124   -4.2614    0.0000 N   0  0  0  0  0  0  0  0  0  0  0  0
   -1.7352   -4.8907    0.0000 N   0  0  0  0  0  0  0  0  0  0  0  0
   -2.6987   -2.4891    0.0000 C   0  0  0  0  0  0  0  0  0  0  0  0
   -3.6973   -2.5415    0.0000 C   0  0  0  0  0  0  0  0  0  0  0  0
   -4.2419   -1.7028    0.0000 C   0  0  0  0  0  0  0  0  0  0  0  0
   -3.7879   -0.8118    0.0000 C   0  0  0  0  0  0  0  0  0  0  0  0
   -2.7893   -0.7595    0.0000 C   0  0  0  0  0  0  0  0  0  0  0  0
   -2.2447   -1.5981    0.0000 C   0  0  0  0  0  0  0  0  0  0  0  0
   -4.3326    0.0269    0.0000 O   0  0  0  0  0  0  0  0  0  0  0  0
   -5.3312   -0.0255    0.0000 C   0  0  0  0  0  0  0  0  0  0  0  0
   -5.8758    0.8132    0.0000 F   0  0  0  0  0  0  0  0  0  0  0  0
   -5.7852   -0.9165    0.0000 F   0  0  0  0  0  0  0  0  0  0  0  0
  1  4  1  0  0  0  0
  1  2  1  0  0  0  0
  1 13  1  0  0  0  0
  2  3  1  0  0  0  0
  3  4  1  0  0  0  0
  3  5  1  0  0  0  0
  5 10  1  0  0  0  0
  5  6  2  0  0  0  0
  6  7  1  0  0  0  0
  7  8  2  0  0  0  0
  7 12  1  0  0  0  0
  8  9  1  0  0  0  0
  8 11  1  0  0  0  0
  9 10  2  0  0  0  0
 13 14  1  0  0  0  0
 14 19  1  0  0  0  0
 14 15  2  0  0  0  0
 15 16  1  0  0  0  0
 16 17  2  0  0  0  0
 17 18  1  0  0  0  0
 18 22  2  0  0  0  0
 18 19  1  0  0  0  0
 19 20  1  0  0  0  0
 20 21  2  0  0  0  0
 20 23  1  0  0  0  0
 21 22  1  0  0  0  0
 23 28  1  0  0  0  0
 23 24  2  0  0  0  0
 24 25  1  0  0  0  0
 25 26  2  0  0  0  0
 26 27  1  0  0  0  0
 26 29  1  0  0  0  0
 27 28  2  0  0  0  0
 29 30  1  0  0  0  0
 30 31  1  0  0  0  0
 30 32  1  0  0  0  0
M  END
> <MW>
445.38

> <EC50>
0.43

$$$$
MMV668957
 OpenBabel06241423362D

 30 34  0  0  1  0  0  0  0  0999 V2000
    1.8749   -3.7951    0.0000 C   0  0  0  0  0  0  0  0  0  0  0  0
    2.8695   -3.6905    0.0000 N   0  0  0  0  0  0  0  0  0  0  0  0
    3.2762   -2.7770    0.0000 C   0  0  0  0  0  0  0  0  0  0  0  0
    2.6884   -1.9680    0.0000 C   0  0  0  0  0  0  0  0  0  0  0  0
    1.6939   -2.0725    0.0000 N   0  0  0  0  0  0  0  0  0  0  0  0
    1.2872   -2.9861    0.0000 C   0  0  0  0  0  0  0  0  0  0  0  0
    0.2926   -3.0906    0.0000 N   0  0  0  0  0  0  0  0  0  0  0  0
   -0.2074   -3.9566    0.0000 C   0  0  0  0  0  0  0  0  0  0  0  0
   -1.1855   -3.7487    0.0000 C   0  0  0  0  0  0  0  0  0  0  0  0
   -1.2900   -2.7542    0.0000 C   0  0  3  0  0  0  0  0  0  0  0  0
   -0.3765   -2.3474    0.0000 C   0  0  0  0  0  0  0  0  0  0  0  0
   -2.1561   -2.2542    0.0000 C   0  0  0  0  0  0  0  0  0  0  0  0
   -3.0221   -2.7542    0.0000 C   0  0  0  0  0  0  0  0  0  0  0  0
   -3.8881   -2.2542    0.0000 C   0  0  0  0  0  0  0  0  0  0  0  0
   -3.8881   -1.2542    0.0000 C   0  0  0  0  0  0  0  0  0  0  0  0
   -3.0221   -0.7542    0.0000 C   0  0  0  0  0  0  0  0  0  0  0  0
   -2.1561   -1.2542    0.0000 C   0  0  0  0  0  0  0  0  0  0  0  0
    1.2872   -1.1590    0.0000 C   0  0  0  0  0  0  0  0  0  0  0  0
    2.0303   -0.4898    0.0000 N   0  0  0  0  0  0  0  0  0  0  0  0
    2.8963   -0.9898    0.0000 N   0  0  0  0  0  0  0  0  0  0  0  0
    0.3090   -0.9511    0.0000 C   0  0  0  0  0  0  0  0  0  0  0  0
   -0.3601   -1.6942    0.0000 C   0  0  0  0  0  0  0  0  0  0  0  0
   -1.3383   -1.4863    0.0000 C   0  0  0  0  0  0  0  0  0  0  0  0
   -1.6473   -0.5352    0.0000 C   0  0  0  0  0  0  0  0  0  0  0  0
   -0.9781    0.2079    0.0000 C   0  0  0  0  0  0  0  0  0  0  0  0
    0.0000    0.0000    0.0000 C   0  0  0  0  0  0  0  0  0  0  0  0
   -2.6254   -0.3273    0.0000 O   0  0  0  0  0  0  0  0  0  0  0  0
   -2.9344    0.6237    0.0000 C   0  0  0  0  0  0  0  0  0  0  0  0
   -2.2653    1.3669    0.0000 F   0  0  0  0  0  0  0  0  0  0  0  0
   -3.9126    0.8316    0.0000 F   0  0  0  0  0  0  0  0  0  0  0  0
  1  6  2  0  0  0  0
  1  2  1  0  0  0  0
  2  3  2  0  0  0  0
  3  4  1  0  0  0  0
  4 20  2  0  0  0  0
  4  5  1  0  0  0  0
  5  6  1  0  0  0  0
  5 18  1  0  0  0  0
  6  7  1  0  0  0  0
  7 11  1  0  0  0  0
  7  8  1  0  0  0  0
  8  9  1  0  0  0  0
  9 10  1  0  0  0  0
 10 11  1  0  0  0  0
 10 12  1  0  0  0  0
 12 17  1  0  0  0  0
 12 13  2  0  0  0  0
 13 14  1  0  0  0  0
 14 15  2  0  0  0  0
 15 16  1  0  0  0  0
 16 17  2  0  0  0  0
 18 19  2  0  0  0  0
 18 21  1  0  0  0  0
 19 20  1  0  0  0  0
 21 26  1  0  0  0  0
 21 22  2  0  0  0  0
 22 23  1  0  0  0  0
 23 24  2  0  0  0  0
 24 25  1  0  0  0  0
 24 27  1  0  0  0  0
 25 26  2  0  0  0  0
 27 28  1  0  0  0  0
 28 29  1  0  0  0  0
 28 30  1  0  0  0  0
M  END
> <MW>
407.42

> <EC50>
2

$$$$
MMV668958
 OpenBabel06241423362D

 30 33  0  0  0  0  0  0  0  0999 V2000
   -0.7138   -4.1723    0.0000 C    0  0  0  0  0  0  0  0  0  0  0  0
    0.1522   -4.6723    0.0000 N    0  0  0  0  0  0  0  0  0  0  0  0
    1.0182   -4.1723    0.0000 C    0  0  0  0  0  0  0  0  0  0  0  0
    1.0182   -3.1723    0.0000 C    0  0  0  0  0  0  0  0  0  0  0  0
    0.1522   -2.6723    0.0000 N    0  0  0  0  0  0  0  0  0  0  0  0
   -0.7138   -3.1723    0.0000 C    0  0  0  0  0  0  0  0  0  0  0  0
   -1.5798   -2.6723    0.0000 C    0  0  0  0  0  0  0  0  0  0  0  0
   -1.5798   -1.6723    0.0000 N    0  0  0  0  0  0  0  0  0  0  0  0
   -2.4459   -1.1723    0.0000 C    0  0  0  0  0  0  0  0  0  0  0  0
   -3.3119   -1.6723    0.0000 C    0  0  0  0  0  0  0  0  0  0  0  0
   -3.3119   -2.6723    0.0000 C    0  0  0  0  0  0  0  0  0  0  0  0
   -4.1779   -3.1723    0.0000 C    0  0  0  0  0  0  0  0  0  0  0  0
   -5.0440   -2.6723    0.0000 C    0  0  0  0  0  0  0  0  0  0  0  0
   -5.0440   -1.6723    0.0000 C    0  0  0  0  0  0  0  0  0  0  0  0
   -4.1779   -1.1723    0.0000 C    0  0  0  0  0  0  0  0  0  0  0  0
   -4.1779   -4.1723    0.0000 Cl   0  0  0  0  0  0  0  0  0  0  0  0
   -2.4459   -3.1723    0.0000 O    0  0  0  0  0  0  0  0  0  0  0  0
    0.3601   -1.6942    0.0000 C    0  0  0  0  0  0  0  0  0  0  0  0
    1.3546   -1.5897    0.0000 N    0  0  0  0  0  0  0  0  0  0  0  0
    1.7614   -2.5032    0.0000 N    0  0  0  0  0  0  0  0  0  0  0  0
   -0.3090   -0.9511    0.0000 C    0  0  0  0  0  0  0  0  0  0  0  0
   -1.2872   -1.1590    0.0000 C    0  0  0  0  0  0  0  0  0  0  0  0
   -1.9563   -0.4158    0.0000 C    0  0  0  0  0  0  0  0  0  0  0  0
   -1.6473    0.5352    0.0000 C    0  0  0  0  0  0  0  0  0  0  0  0
   -0.6691    0.7431    0.0000 C    0  0  0  0  0  0  0  0  0  0  0  0
    0.0000    0.0000    0.0000 C    0  0  0  0  0  0  0  0  0  0  0  0
   -2.3164    1.2784    0.0000 O    0  0  0  0  0  0  0  0  0  0  0  0
   -2.0074    2.2294    0.0000 C    0  0  0  0  0  0  0  0  0  0  0  0
   -1.0292    2.4373    0.0000 F    0  0  0  0  0  0  0  0  0  0  0  0
   -2.6765    2.9726    0.0000 F    0  0  0  0  0  0  0  0  0  0  0  0
  1  6  2  0  0  0  0
  1  2  1  0  0  0  0
  2  3  2  0  0  0  0
  3  4  1  0  0  0  0
  4 20  2  0  0  0  0
  4  5  1  0  0  0  0
  5  6  1  0  0  0  0
  5 18  1  0  0  0  0
  6  7  1  0  0  0  0
  7  8  1  0  0  0  0
  7 17  2  0  0  0  0
  8  9  1  0  0  0  0
  9 10  1  0  0  0  0
 10 15  1  0  0  0  0
 10 11  2  0  0  0  0
 11 12  1  0  0  0  0
 12 13  2  0  0  0  0
 12 16  1  0  0  0  0
 13 14  1  0  0  0  0
 14 15  2  0  0  0  0
 18 19  2  0  0  0  0
 18 21  1  0  0  0  0
 19 20  1  0  0  0  0
 21 26  1  0  0  0  0
 21 22  2  0  0  0  0
 22 23  1  0  0  0  0
 23 24  2  0  0  0  0
 24 25  1  0  0  0  0
 24 27  1  0  0  0  0
 25 26  2  0  0  0  0
 27 28  1  0  0  0  0
 28 29  1  0  0  0  0
 28 30  1  0  0  0  0
M  END
> <MW>
429.81

> <EC50>
0.25

$$$$
MMV668959
 OpenBabel06241423362D

 26 29  0  0  0  0  0  0  0  0999 V2000
    0.7138    4.1723    0.0000 C   0  0  0  0  0  0  0  0  0  0  0  0
   -0.1522    4.6723    0.0000 N   0  0  0  0  0  0  0  0  0  0  0  0
   -1.0182    4.1723    0.0000 C   0  0  0  0  0  0  0  0  0  0  0  0
   -1.0182    3.1723    0.0000 C   0  0  0  0  0  0  0  0  0  0  0  0
   -0.1522    2.6723    0.0000 N   0  0  0  0  0  0  0  0  0  0  0  0
    0.7138    3.1723    0.0000 C   0  0  0  0  0  0  0  0  0  0  0  0
    1.5798    2.6723    0.0000 O   0  0  0  0  0  0  0  0  0  0  0  0
    2.4459    3.1723    0.0000 C   0  0  0  0  0  0  0  0  0  0  0  0
    3.3119    2.6723    0.0000 C   0  0  0  0  0  0  0  0  0  0  0  0
    4.1779    3.1723    0.0000 C   0  0  0  0  0  0  0  0  0  0  0  0
    4.1779    4.1723    0.0000 C   0  0  0  0  0  0  0  0  0  0  0  0
    5.0440    4.6723    0.0000 C   0  0  0  0  0  0  0  0  0  0  0  0
    5.9100    4.1723    0.0000 C   0  0  0  0  0  0  0  0  0  0  0  0
    5.9100    3.1723    0.0000 C   0  0  0  0  0  0  0  0  0  0  0  0
    5.0440    2.6723    0.0000 C   0  0  0  0  0  0  0  0  0  0  0  0
    6.7760    4.6723    0.0000 F   0  0  0  0  0  0  0  0  0  0  0  0
    5.0440    5.6723    0.0000 F   0  0  0  0  0  0  0  0  0  0  0  0
   -0.3601    1.6942    0.0000 C   0  0  0  0  0  0  0  0  0  0  0  0
   -1.3546    1.5897    0.0000 N   0  0  0  0  0  0  0  0  0  0  0  0
   -1.7614    2.5032    0.0000 N   0  0  0  0  0  0  0  0  0  0  0  0
    0.3090    0.9511    0.0000 C   0  0  0  0  0  0  0  0  0  0  0  0
    1.2872    1.1590    0.0000 C   0  0  0  0  0  0  0  0  0  0  0  0
    1.9563    0.4158    0.0000 C   0  0  0  0  0  0  0  0  0  0  0  0
    1.6473   -0.5352    0.0000 O   0  0  0  0  0  0  0  0  0  0  0  0
    0.6691   -0.7431    0.0000 C   0  0  0  0  0  0  0  0  0  0  0  0
    0.0000    0.0000    0.0000 C   0  0  0  0  0  0  0  0  0  0  0  0
  1  6  2  0  0  0  0
  1  2  1  0  0  0  0
  2  3  2  0  0  0  0
  3  4  1  0  0  0  0
  4 20  2  0  0  0  0
  4  5  1  0  0  0  0
  5  6  1  0  0  0  0
  5 18  1  0  0  0  0
  6  7  1  0  0  0  0
  7  8  1  0  0  0  0
  8  9  1  0  0  0  0
  9 10  1  0  0  0  0
 10 15  1  0  0  0  0
 10 11  2  0  0  0  0
 11 12  1  0  0  0  0
 12 13  2  0  0  0  0
 12 17  1  0  0  0  0
 13 14  1  0  0  0  0
 13 16  1  0  0  0  0
 14 15  2  0  0  0  0
 18 19  2  0  0  0  0
 18 21  1  0  0  0  0
 19 20  1  0  0  0  0
 21 26  1  0  0  0  0
 21 22  1  0  0  0  0
 22 23  1  0  0  0  0
 23 24  1  0  0  0  0
 24 25  1  0  0  0  0
 25 26  1  0  0  0  0
M  END
> <MW>
360.36

> <EC50>
10

$$$$
MMV668960
 OpenBabel06241423362D

 19 21  0  0  0  0  0  0  0  0999 V2000
    3.9328   -1.5657    0.0000 C   0  0  0  0  0  0  0  0  0  0  0  0
    4.6019   -0.8226    0.0000 N   0  0  0  0  0  0  0  0  0  0  0  0
    4.2929    0.1285    0.0000 C   0  0  0  0  0  0  0  0  0  0  0  0
    3.3147    0.3364    0.0000 C   0  0  0  0  0  0  0  0  0  0  0  0
    2.6456   -0.4067    0.0000 N   0  0  0  0  0  0  0  0  0  0  0  0
    2.9546   -1.3578    0.0000 C   0  0  0  0  0  0  0  0  0  0  0  0
    1.7321    0.0000    0.0000 C   0  0  0  0  0  0  0  0  0  0  0  0
    1.8366    0.9945    0.0000 N   0  0  0  0  0  0  0  0  0  0  0  0
    2.8147    1.2024    0.0000 N   0  0  0  0  0  0  0  0  0  0  0  0
    0.8660   -0.5000    0.0000 C   0  0  0  0  0  0  0  0  0  0  0  0
    0.8660   -1.5000    0.0000 C   0  0  0  0  0  0  0  0  0  0  0  0
    0.0000   -2.0000    0.0000 C   0  0  0  0  0  0  0  0  0  0  0  0
   -0.8660   -1.5000    0.0000 C   0  0  0  0  0  0  0  0  0  0  0  0
   -0.8660   -0.5000    0.0000 C   0  0  0  0  0  0  0  0  0  0  0  0
    0.0000    0.0000    0.0000 C   0  0  0  0  0  0  0  0  0  0  0  0
   -1.7321   -2.0000    0.0000 O   0  0  0  0  0  0  0  0  0  0  0  0
   -2.5981   -1.5000    0.0000 C   0  0  0  0  0  0  0  0  0  0  0  0
   -2.5981   -0.5000    0.0000 F   0  0  0  0  0  0  0  0  0  0  0  0
   -3.4641   -2.0000    0.0000 F   0  0  0  0  0  0  0  0  0  0  0  0
  1  6  1  0  0  0  0
  1  2  1  0  0  0  0
  2  3  1  0  0  0  0
  3  4  1  0  0  0  0
  4  9  2  0  0  0  0
  4  5  1  0  0  0  0
  5  6  1  0  0  0  0
  5  7  1  0  0  0  0
  7  8  2  0  0  0  0
  7 10  1  0  0  0  0
  8  9  1  0  0  0  0
 10 15  1  0  0  0  0
 10 11  2  0  0  0  0
 11 12  1  0  0  0  0
 12 13  2  0  0  0  0
 13 14  1  0  0  0  0
 13 16  1  0  0  0  0
 14 15  2  0  0  0  0
 16 17  1  0  0  0  0
 17 18  1  0  0  0  0
 17 19  1  0  0  0  0
M  END
> <MW>
266.25

> <EC50>
10

$$$$
MMV668961
 OpenBabel06241423362D

 29 32  0  0  0  0  0  0  0  0999 V2000
   -0.7138   -4.1723    0.0000 C   0  0  0  0  0  0  0  0  0  0  0  0
    0.1522   -4.6723    0.0000 N   0  0  0  0  0  0  0  0  0  0  0  0
    1.0182   -4.1723    0.0000 C   0  0  0  0  0  0  0  0  0  0  0  0
    1.0182   -3.1723    0.0000 C   0  0  0  0  0  0  0  0  0  0  0  0
    0.1522   -2.6723    0.0000 N   0  0  0  0  0  0  0  0  0  0  0  0
   -0.7138   -3.1723    0.0000 C   0  0  0  0  0  0  0  0  0  0  0  0
   -1.5798   -2.6723    0.0000 O   0  0  0  0  0  0  0  0  0  0  0  0
   -2.4459   -3.1723    0.0000 C   0  0  0  0  0  0  0  0  0  0  0  0
   -3.3119   -2.6723    0.0000 C   0  0  0  0  0  0  0  0  0  0  0  0
   -4.1779   -3.1723    0.0000 C   0  0  0  0  0  0  0  0  0  0  0  0
   -4.1779   -4.1723    0.0000 C   0  0  0  0  0  0  0  0  0  0  0  0
   -5.0440   -4.6723    0.0000 C   0  0  0  0  0  0  0  0  0  0  0  0
   -5.9100   -4.1723    0.0000 C   0  0  0  0  0  0  0  0  0  0  0  0
   -5.9100   -3.1723    0.0000 C   0  0  0  0  0  0  0  0  0  0  0  0
   -5.0440   -2.6723    0.0000 C   0  0  0  0  0  0  0  0  0  0  0  0
   -6.7760   -4.6723    0.0000 F   0  0  0  0  0  0  0  0  0  0  0  0
   -5.0440   -5.6723    0.0000 F   0  0  0  0  0  0  0  0  0  0  0  0
    0.3601   -1.6942    0.0000 C   0  0  0  0  0  0  0  0  0  0  0  0
    1.3546   -1.5897    0.0000 N   0  0  0  0  0  0  0  0  0  0  0  0
    1.7614   -2.5032    0.0000 N   0  0  0  0  0  0  0  0  0  0  0  0
   -0.3090   -0.9511    0.0000 C   0  0  0  0  0  0  0  0  0  0  0  0
   -1.2872   -1.1590    0.0000 C   0  0  0  0  0  0  0  0  0  0  0  0
   -1.9563   -0.4158    0.0000 C   0  0  0  0  0  0  0  0  0  0  0  0
   -1.6473    0.5352    0.0000 N   0  0  0  0  0  0  0  0  0  0  0  0
   -0.6691    0.7431    0.0000 C   0  0  0  0  0  0  0  0  0  0  0  0
    0.0000    0.0000    0.0000 C   0  0  0  0  0  0  0  0  0  0  0  0
   -2.3164    1.2784    0.0000 C   0  0  0  0  0  0  0  0  0  0  0  0
   -2.0074    2.2294    0.0000 C   0  0  0  0  0  0  0  0  0  0  0  0
   -3.2946    1.0705    0.0000 O   0  0  0  0  0  0  0  0  0  0  0  0
  1  6  2  0  0  0  0
  1  2  1  0  0  0  0
  2  3  2  0  0  0  0
  3  4  1  0  0  0  0
  4 20  2  0  0  0  0
  4  5  1  0  0  0  0
  5  6  1  0  0  0  0
  5 18  1  0  0  0  0
  6  7  1  0  0  0  0
  7  8  1  0  0  0  0
  8  9  1  0  0  0  0
  9 10  1  0  0  0  0
 10 15  1  0  0  0  0
 10 11  2  0  0  0  0
 11 12  1  0  0  0  0
 12 13  2  0  0  0  0
 12 17  1  0  0  0  0
 13 14  1  0  0  0  0
 13 16  1  0  0  0  0
 14 15  2  0  0  0  0
 18 19  2  0  0  0  0
 18 21  1  0  0  0  0
 19 20  1  0  0  0  0
 21 26  1  0  0  0  0
 21 22  1  0  0  0  0
 22 23  1  0  0  0  0
 23 24  1  0  0  0  0
 24 25  1  0  0  0  0
 24 27  1  0  0  0  0
 25 26  1  0  0  0  0
 27 28  1  0  0  0  0
 27 29  2  0  0  0  0
M  END
> <MW>
401.42

> <EC50>
10

$$$$
MMV668962
 OpenBabel06241423362D

 23 25  0  0  0  0  0  0  0  0999 V2000
    3.9328   -1.5657    0.0000 C   0  0  0  0  0  0  0  0  0  0  0  0
    4.6019   -0.8226    0.0000 N   0  0  0  0  0  0  0  0  0  0  0  0
    4.2929    0.1285    0.0000 C   0  0  0  0  0  0  0  0  0  0  0  0
    3.3147    0.3364    0.0000 C   0  0  0  0  0  0  0  0  0  0  0  0
    2.6456   -0.4067    0.0000 N   0  0  0  0  0  0  0  0  0  0  0  0
    2.9546   -1.3578    0.0000 C   0  0  0  0  0  0  0  0  0  0  0  0
    1.7321    0.0000    0.0000 C   0  0  0  0  0  0  0  0  0  0  0  0
    1.8366    0.9945    0.0000 N   0  0  0  0  0  0  0  0  0  0  0  0
    2.8147    1.2024    0.0000 N   0  0  0  0  0  0  0  0  0  0  0  0
    0.8660   -0.5000    0.0000 C   0  0  0  0  0  0  0  0  0  0  0  0
    0.8660   -1.5000    0.0000 C   0  0  0  0  0  0  0  0  0  0  0  0
    0.0000   -2.0000    0.0000 C   0  0  0  0  0  0  0  0  0  0  0  0
   -0.8660   -1.5000    0.0000 C   0  0  0  0  0  0  0  0  0  0  0  0
   -0.8660   -0.5000    0.0000 C   0  0  0  0  0  0  0  0  0  0  0  0
    0.0000    0.0000    0.0000 C   0  0  0  0  0  0  0  0  0  0  0  0
   -1.7321   -2.0000    0.0000 O   0  0  0  0  0  0  0  0  0  0  0  0
   -2.5981   -1.5000    0.0000 C   0  0  0  0  0  0  0  0  0  0  0  0
   -2.5981   -0.5000    0.0000 F   0  0  0  0  0  0  0  0  0  0  0  0
   -3.4641   -2.0000    0.0000 F   0  0  0  0  0  0  0  0  0  0  0  0
    5.5800   -1.0305    0.0000 C   0  0  0  0  0  0  0  0  0  0  0  0
    5.8891   -1.9815    0.0000 C   0  0  0  0  0  0  0  0  0  0  0  0
    5.2199   -2.7247    0.0000 N   0  0  0  0  0  0  0  0  0  0  0  0
    6.2492   -0.2873    0.0000 O   0  0  0  0  0  0  0  0  0  0  0  0
  1  6  1  0  0  0  0
  1  2  1  0  0  0  0
  2  3  1  0  0  0  0
  2 20  1  0  0  0  0
  3  4  1  0  0  0  0
  4  9  2  0  0  0  0
  4  5  1  0  0  0  0
  5  6  1  0  0  0  0
  5  7  1  0  0  0  0
  7  8  2  0  0  0  0
  7 10  1  0  0  0  0
  8  9  1  0  0  0  0
 10 15  1  0  0  0  0
 10 11  2  0  0  0  0
 11 12  1  0  0  0  0
 12 13  2  0  0  0  0
 13 14  1  0  0  0  0
 13 16  1  0  0  0  0
 14 15  2  0  0  0  0
 16 17  1  0  0  0  0
 17 18  1  0  0  0  0
 17 19  1  0  0  0  0
 20 21  1  0  0  0  0
 20 23  2  0  0  0  0
 21 22  1  0  0  0  0
M  END
> <MW>
323.3

> <EC50>
10

$$$$
MMV669000
 OpenBabel06241423362D

 30 34  0  0  0  0  0  0  0  0999 V2000
    3.9703    1.4680    0.0000 C   0  0  0  0  0  0  0  0  0  0  0  0
    3.9703    2.4680    0.0000 N   0  0  0  0  0  0  0  0  0  0  0  0
    3.1042    2.9680    0.0000 C   0  0  0  0  0  0  0  0  0  0  0  0
    2.2382    2.4680    0.0000 C   0  0  0  0  0  0  0  0  0  0  0  0
    2.2382    1.4680    0.0000 N   0  0  0  0  0  0  0  0  0  0  0  0
    3.1042    0.9680    0.0000 C   0  0  0  0  0  0  0  0  0  0  0  0
    3.1042   -0.0320    0.0000 C   0  0  0  0  0  0  0  0  0  0  0  0
    3.9703   -0.5320    0.0000 N   0  0  0  0  0  0  0  0  0  0  0  0
    4.0748   -1.5265    0.0000 C   0  0  0  0  0  0  0  0  0  0  0  0
    5.0529   -1.7344    0.0000 C   0  0  0  0  0  0  0  0  0  0  0  0
    5.5529   -0.8684    0.0000 C   0  0  0  0  0  0  0  0  0  0  0  0
    4.8838   -0.1253    0.0000 C   0  0  0  0  0  0  0  0  0  0  0  0
    6.5529   -0.8684    0.0000 C   0  0  0  0  0  0  0  0  0  0  0  0
    7.0529   -1.7344    0.0000 C   0  0  0  0  0  0  0  0  0  0  0  0
    6.5529   -2.6005    0.0000 C   0  0  0  0  0  0  0  0  0  0  0  0
    5.5529   -2.6005    0.0000 C   0  0  0  0  0  0  0  0  0  0  0  0
    2.2382   -0.5320    0.0000 O   0  0  0  0  0  0  0  0  0  0  0  0
    1.2872    1.1590    0.0000 C   0  0  0  0  0  0  0  0  0  0  0  0
    0.6994    1.9680    0.0000 N   0  0  0  0  0  0  0  0  0  0  0  0
    1.2872    2.7770    0.0000 N   0  0  0  0  0  0  0  0  0  0  0  0
    0.9781    0.2079    0.0000 C   0  0  0  0  0  0  0  0  0  0  0  0
    1.6473   -0.5352    0.0000 C   0  0  0  0  0  0  0  0  0  0  0  0
    1.3383   -1.4863    0.0000 C   0  0  0  0  0  0  0  0  0  0  0  0
    0.3601   -1.6942    0.0000 C   0  0  0  0  0  0  0  0  0  0  0  0
   -0.3090   -0.9511    0.0000 C   0  0  0  0  0  0  0  0  0  0  0  0
    0.0000    0.0000    0.0000 C   0  0  0  0  0  0  0  0  0  0  0  0
    0.0511   -2.6453    0.0000 O   0  0  0  0  0  0  0  0  0  0  0  0
   -0.9271   -2.8532    0.0000 C   0  0  0  0  0  0  0  0  0  0  0  0
   -1.5962   -2.1100    0.0000 F   0  0  0  0  0  0  0  0  0  0  0  0
   -1.2361   -3.8042    0.0000 F   0  0  0  0  0  0  0  0  0  0  0  0
  1  6  2  0  0  0  0
  1  2  1  0  0  0  0
  2  3  2  0  0  0  0
  3  4  1  0  0  0  0
  4 20  2  0  0  0  0
  4  5  1  0  0  0  0
  5  6  1  0  0  0  0
  5 18  1  0  0  0  0
  6  7  1  0  0  0  0
  7  8  1  0  0  0  0
  7 17  2  0  0  0  0
  8 12  1  0  0  0  0
  8  9  1  0  0  0  0
  9 10  1  0  0  0  0
 10 16  1  0  0  0  0
 10 11  2  0  0  0  0
 11 12  1  0  0  0  0
 11 13  1  0  0  0  0
 13 14  2  0  0  0  0
 14 15  1  0  0  0  0
 15 16  2  0  0  0  0
 18 19  2  0  0  0  0
 18 21  1  0  0  0  0
 19 20  1  0  0  0  0
 21 26  1  0  0  0  0
 21 22  2  0  0  0  0
 22 23  1  0  0  0  0
 23 24  2  0  0  0  0
 24 25  1  0  0  0  0
 24 27  1  0  0  0  0
 25 26  2  0  0  0  0
 27 28  1  0  0  0  0
 28 29  1  0  0  0  0
 28 30  1  0  0  0  0
M  END
> <MW>
407.38

> <EC50>
10

$$$$
MMV669001
 OpenBabel06241423362D

 30 33  0  0  0  0  0  0  0  0999 V2000
    0.7138    4.1723    0.0000 C    0  0  0  0  0  0  0  0  0  0  0  0
   -0.1522    4.6723    0.0000 N    0  0  0  0  0  0  0  0  0  0  0  0
   -1.0182    4.1723    0.0000 C    0  0  0  0  0  0  0  0  0  0  0  0
   -1.0182    3.1723    0.0000 C    0  0  0  0  0  0  0  0  0  0  0  0
   -0.1522    2.6723    0.0000 N    0  0  0  0  0  0  0  0  0  0  0  0
    0.7138    3.1723    0.0000 C    0  0  0  0  0  0  0  0  0  0  0  0
    1.5798    2.6723    0.0000 C    0  0  0  0  0  0  0  0  0  0  0  0
    1.5798    1.6723    0.0000 N    0  0  0  0  0  0  0  0  0  0  0  0
    2.4459    1.1723    0.0000 C    0  0  0  0  0  0  0  0  0  0  0  0
    3.3119    1.6723    0.0000 C    0  0  0  0  0  0  0  0  0  0  0  0
    3.3119    2.6723    0.0000 C    0  0  0  0  0  0  0  0  0  0  0  0
    4.1779    3.1723    0.0000 C    0  0  0  0  0  0  0  0  0  0  0  0
    5.0440    2.6723    0.0000 C    0  0  0  0  0  0  0  0  0  0  0  0
    5.0440    1.6723    0.0000 C    0  0  0  0  0  0  0  0  0  0  0  0
    4.1779    1.1723    0.0000 C    0  0  0  0  0  0  0  0  0  0  0  0
    5.9100    3.1723    0.0000 Cl   0  0  0  0  0  0  0  0  0  0  0  0
    2.4459    3.1723    0.0000 O    0  0  0  0  0  0  0  0  0  0  0  0
   -0.3601    1.6942    0.0000 C    0  0  0  0  0  0  0  0  0  0  0  0
   -1.3546    1.5897    0.0000 N    0  0  0  0  0  0  0  0  0  0  0  0
   -1.7614    2.5032    0.0000 N    0  0  0  0  0  0  0  0  0  0  0  0
    0.3090    0.9511    0.0000 C    0  0  0  0  0  0  0  0  0  0  0  0
    1.2872    1.1590    0.0000 C    0  0  0  0  0  0  0  0  0  0  0  0
    1.9563    0.4158    0.0000 C    0  0  0  0  0  0  0  0  0  0  0  0
    1.6473   -0.5352    0.0000 C    0  0  0  0  0  0  0  0  0  0  0  0
    0.6691   -0.7431    0.0000 C    0  0  0  0  0  0  0  0  0  0  0  0
    0.0000    0.0000    0.0000 C    0  0  0  0  0  0  0  0  0  0  0  0
    2.3164   -1.2784    0.0000 O    0  0  0  0  0  0  0  0  0  0  0  0
    2.0074   -2.2294    0.0000 C    0  0  0  0  0  0  0  0  0  0  0  0
    1.0292   -2.4373    0.0000 F    0  0  0  0  0  0  0  0  0  0  0  0
    2.6765   -2.9726    0.0000 F    0  0  0  0  0  0  0  0  0  0  0  0
  1  6  2  0  0  0  0
  1  2  1  0  0  0  0
  2  3  2  0  0  0  0
  3  4  1  0  0  0  0
  4 20  2  0  0  0  0
  4  5  1  0  0  0  0
  5  6  1  0  0  0  0
  5 18  1  0  0  0  0
  6  7  1  0  0  0  0
  7  8  1  0  0  0  0
  7 17  2  0  0  0  0
  8  9  1  0  0  0  0
  9 10  1  0  0  0  0
 10 15  1  0  0  0  0
 10 11  2  0  0  0  0
 11 12  1  0  0  0  0
 12 13  2  0  0  0  0
 13 14  1  0  0  0  0
 13 16  1  0  0  0  0
 14 15  2  0  0  0  0
 18 19  2  0  0  0  0
 18 21  1  0  0  0  0
 19 20  1  0  0  0  0
 21 26  1  0  0  0  0
 21 22  2  0  0  0  0
 22 23  1  0  0  0  0
 23 24  2  0  0  0  0
 24 25  1  0  0  0  0
 24 27  1  0  0  0  0
 25 26  2  0  0  0  0
 27 28  1  0  0  0  0
 28 29  1  0  0  0  0
 28 30  1  0  0  0  0
M  END
> <MW>
429.81

> <EC50>
1.34

$$$$
MMV669002
 OpenBabel06241423362D

 30 33  0  0  0  0  0  0  0  0999 V2000
    0.7138    4.1723    0.0000 C    0  0  0  0  0  0  0  0  0  0  0  0
   -0.1522    4.6723    0.0000 N    0  0  0  0  0  0  0  0  0  0  0  0
   -1.0182    4.1723    0.0000 C    0  0  0  0  0  0  0  0  0  0  0  0
   -1.0182    3.1723    0.0000 C    0  0  0  0  0  0  0  0  0  0  0  0
   -0.1522    2.6723    0.0000 N    0  0  0  0  0  0  0  0  0  0  0  0
    0.7138    3.1723    0.0000 C    0  0  0  0  0  0  0  0  0  0  0  0
    1.5798    2.6723    0.0000 C    0  0  0  0  0  0  0  0  0  0  0  0
    1.5798    1.6723    0.0000 N    0  0  0  0  0  0  0  0  0  0  0  0
    2.4459    1.1723    0.0000 C    0  0  0  0  0  0  0  0  0  0  0  0
    3.3119    1.6723    0.0000 C    0  0  0  0  0  0  0  0  0  0  0  0
    3.3119    2.6723    0.0000 C    0  0  0  0  0  0  0  0  0  0  0  0
    4.1779    3.1723    0.0000 C    0  0  0  0  0  0  0  0  0  0  0  0
    5.0440    2.6723    0.0000 C    0  0  0  0  0  0  0  0  0  0  0  0
    5.0440    1.6723    0.0000 C    0  0  0  0  0  0  0  0  0  0  0  0
    4.1779    1.1723    0.0000 C    0  0  0  0  0  0  0  0  0  0  0  0
    4.1779    0.1723    0.0000 Cl   0  0  0  0  0  0  0  0  0  0  0  0
    2.4459    3.1723    0.0000 O    0  0  0  0  0  0  0  0  0  0  0  0
   -0.3601    1.6942    0.0000 C    0  0  0  0  0  0  0  0  0  0  0  0
   -1.3546    1.5897    0.0000 N    0  0  0  0  0  0  0  0  0  0  0  0
   -1.7614    2.5032    0.0000 N    0  0  0  0  0  0  0  0  0  0  0  0
    0.3090    0.9511    0.0000 C    0  0  0  0  0  0  0  0  0  0  0  0
    1.2872    1.1590    0.0000 C    0  0  0  0  0  0  0  0  0  0  0  0
    1.9563    0.4158    0.0000 C    0  0  0  0  0  0  0  0  0  0  0  0
    1.6473   -0.5352    0.0000 C    0  0  0  0  0  0  0  0  0  0  0  0
    0.6691   -0.7431    0.0000 C    0  0  0  0  0  0  0  0  0  0  0  0
    0.0000    0.0000    0.0000 C    0  0  0  0  0  0  0  0  0  0  0  0
    2.3164   -1.2784    0.0000 O    0  0  0  0  0  0  0  0  0  0  0  0
    2.0074   -2.2294    0.0000 C    0  0  0  0  0  0  0  0  0  0  0  0
    1.0292   -2.4373    0.0000 F    0  0  0  0  0  0  0  0  0  0  0  0
    2.6765   -2.9726    0.0000 F    0  0  0  0  0  0  0  0  0  0  0  0
  1  6  2  0  0  0  0
  1  2  1  0  0  0  0
  2  3  2  0  0  0  0
  3  4  1  0  0  0  0
  4 20  2  0  0  0  0
  4  5  1  0  0  0  0
  5  6  1  0  0  0  0
  5 18  1  0  0  0  0
  6  7  1  0  0  0  0
  7  8  1  0  0  0  0
  7 17  2  0  0  0  0
  8  9  1  0  0  0  0
  9 10  1  0  0  0  0
 10 15  1  0  0  0  0
 10 11  2  0  0  0  0
 11 12  1  0  0  0  0
 12 13  2  0  0  0  0
 13 14  1  0  0  0  0
 14 15  2  0  0  0  0
 15 16  1  0  0  0  0
 18 19  2  0  0  0  0
 18 21  1  0  0  0  0
 19 20  1  0  0  0  0
 21 26  1  0  0  0  0
 21 22  2  0  0  0  0
 22 23  1  0  0  0  0
 23 24  2  0  0  0  0
 24 25  1  0  0  0  0
 24 27  1  0  0  0  0
 25 26  2  0  0  0  0
 27 28  1  0  0  0  0
 28 29  1  0  0  0  0
 28 30  1  0  0  0  0
M  END
> <MW>
429.81

> <EC50>
0.38

$$$$
MMV669003
 OpenBabel06241423362D

 29 32  0  0  0  0  0  0  0  0999 V2000
   -0.7138   -4.1723    0.0000 C   0  0  0  0  0  0  0  0  0  0  0  0
    0.1522   -4.6723    0.0000 N   0  0  0  0  0  0  0  0  0  0  0  0
    1.0182   -4.1723    0.0000 C   0  0  0  0  0  0  0  0  0  0  0  0
    1.0182   -3.1723    0.0000 C   0  0  0  0  0  0  0  0  0  0  0  0
    0.1522   -2.6723    0.0000 N   0  0  0  0  0  0  0  0  0  0  0  0
   -0.7138   -3.1723    0.0000 C   0  0  0  0  0  0  0  0  0  0  0  0
   -1.5798   -2.6723    0.0000 C   0  0  0  0  0  0  0  0  0  0  0  0
   -1.5798   -1.6723    0.0000 N   0  0  0  0  0  0  0  0  0  0  0  0
   -2.4459   -1.1723    0.0000 C   0  0  0  0  0  0  0  0  0  0  0  0
   -3.3119   -1.6723    0.0000 C   0  0  0  0  0  0  0  0  0  0  0  0
   -3.3119   -2.6723    0.0000 C   0  0  0  0  0  0  0  0  0  0  0  0
   -4.1779   -3.1723    0.0000 C   0  0  0  0  0  0  0  0  0  0  0  0
   -5.0440   -2.6723    0.0000 O   0  0  0  0  0  0  0  0  0  0  0  0
   -5.0440   -1.6723    0.0000 C   0  0  0  0  0  0  0  0  0  0  0  0
   -4.1779   -1.1723    0.0000 C   0  0  0  0  0  0  0  0  0  0  0  0
   -2.4459   -3.1723    0.0000 O   0  0  0  0  0  0  0  0  0  0  0  0
    0.3601   -1.6942    0.0000 C   0  0  0  0  0  0  0  0  0  0  0  0
    1.3546   -1.5897    0.0000 N   0  0  0  0  0  0  0  0  0  0  0  0
    1.7614   -2.5032    0.0000 N   0  0  0  0  0  0  0  0  0  0  0  0
   -0.3090   -0.9511    0.0000 C   0  0  0  0  0  0  0  0  0  0  0  0
   -1.2872   -1.1590    0.0000 C   0  0  0  0  0  0  0  0  0  0  0  0
   -1.9563   -0.4158    0.0000 C   0  0  0  0  0  0  0  0  0  0  0  0
   -1.6473    0.5352    0.0000 C   0  0  0  0  0  0  0  0  0  0  0  0
   -0.6691    0.7431    0.0000 C   0  0  0  0  0  0  0  0  0  0  0  0
    0.0000    0.0000    0.0000 C   0  0  0  0  0  0  0  0  0  0  0  0
   -2.3164    1.2784    0.0000 O   0  0  0  0  0  0  0  0  0  0  0  0
   -2.0074    2.2294    0.0000 C   0  0  0  0  0  0  0  0  0  0  0  0
   -1.0292    2.4373    0.0000 F   0  0  0  0  0  0  0  0  0  0  0  0
   -2.6765    2.9726    0.0000 F   0  0  0  0  0  0  0  0  0  0  0  0
  1  6  2  0  0  0  0
  1  2  1  0  0  0  0
  2  3  2  0  0  0  0
  3  4  1  0  0  0  0
  4 19  2  0  0  0  0
  4  5  1  0  0  0  0
  5  6  1  0  0  0  0
  5 17  1  0  0  0  0
  6  7  1  0  0  0  0
  7  8  1  0  0  0  0
  7 16  2  0  0  0  0
  8  9  1  0  0  0  0
  9 10  1  0  0  0  0
 10 15  1  0  0  0  0
 10 11  1  0  0  0  0
 11 12  1  0  0  0  0
 12 13  1  0  0  0  0
 13 14  1  0  0  0  0
 14 15  1  0  0  0  0
 17 18  2  0  0  0  0
 17 20  1  0  0  0  0
 18 19  1  0  0  0  0
 20 25  1  0  0  0  0
 20 21  2  0  0  0  0
 21 22  1  0  0  0  0
 22 23  2  0  0  0  0
 23 24  1  0  0  0  0
 23 26  1  0  0  0  0
 24 25  2  0  0  0  0
 26 27  1  0  0  0  0
 27 28  1  0  0  0  0
 27 29  1  0  0  0  0
M  END
> <MW>
403.39

> <EC50>
10

$$$$
MMV669006
 OpenBabel06241423362D

 29 32  0  0  0  0  0  0  0  0999 V2000
   -4.2793   -2.4190    0.0000 C   0  0  0  0  0  0  0  0  0  0  0  0
   -4.2793   -3.4190    0.0000 N   0  0  0  0  0  0  0  0  0  0  0  0
   -3.4133   -3.9190    0.0000 C   0  0  0  0  0  0  0  0  0  0  0  0
   -2.5472   -3.4190    0.0000 C   0  0  0  0  0  0  0  0  0  0  0  0
   -2.5472   -2.4190    0.0000 N   0  0  0  0  0  0  0  0  0  0  0  0
   -3.4133   -1.9190    0.0000 C   0  0  0  0  0  0  0  0  0  0  0  0
   -3.4133   -0.9190    0.0000 O   0  0  0  0  0  0  0  0  0  0  0  0
   -4.2793   -0.4190    0.0000 C   0  0  0  0  0  0  0  0  0  0  0  0
   -5.1453   -0.9190    0.0000 C   0  0  0  0  0  0  0  0  0  0  0  0
   -6.0113   -0.4190    0.0000 C   0  0  0  0  0  0  0  0  0  0  0  0
   -6.0113    0.5810    0.0000 C   0  0  0  0  0  0  0  0  0  0  0  0
   -6.8774    1.0810    0.0000 C   0  0  0  0  0  0  0  0  0  0  0  0
   -7.7434    0.5810    0.0000 C   0  0  0  0  0  0  0  0  0  0  0  0
   -7.7434   -0.4190    0.0000 C   0  0  0  0  0  0  0  0  0  0  0  0
   -6.8774   -0.9190    0.0000 C   0  0  0  0  0  0  0  0  0  0  0  0
   -8.6094    1.0810    0.0000 F   0  0  0  0  0  0  0  0  0  0  0  0
   -6.8774    2.0810    0.0000 F   0  0  0  0  0  0  0  0  0  0  0  0
   -1.5962   -2.1100    0.0000 C   0  0  0  0  0  0  0  0  0  0  0  0
   -1.0084   -2.9190    0.0000 N   0  0  0  0  0  0  0  0  0  0  0  0
   -1.5962   -3.7281    0.0000 N   0  0  0  0  0  0  0  0  0  0  0  0
   -1.2872   -1.1590    0.0000 N   0  0  0  0  0  0  0  0  0  0  0  0
   -0.3090   -0.9511    0.0000 C   0  0  0  0  0  0  0  0  0  0  0  0
    0.3601   -1.6942    0.0000 C   0  0  0  0  0  0  0  0  0  0  0  0
    1.3383   -1.4863    0.0000 C   0  0  0  0  0  0  0  0  0  0  0  0
    1.6473   -0.5352    0.0000 C   0  0  0  0  0  0  0  0  0  0  0  0
    0.9781    0.2079    0.0000 C   0  0  0  0  0  0  0  0  0  0  0  0
    0.0000    0.0000    0.0000 C   0  0  0  0  0  0  0  0  0  0  0  0
    2.6254   -0.3273    0.0000 F   0  0  0  0  0  0  0  0  0  0  0  0
    2.0074   -2.2294    0.0000 F   0  0  0  0  0  0  0  0  0  0  0  0
  1  6  2  0  0  0  0
  1  2  1  0  0  0  0
  2  3  2  0  0  0  0
  3  4  1  0  0  0  0
  4 20  2  0  0  0  0
  4  5  1  0  0  0  0
  5  6  1  0  0  0  0
  5 18  1  0  0  0  0
  6  7  1  0  0  0  0
  7  8  1  0  0  0  0
  8  9  1  0  0  0  0
  9 10  1  0  0  0  0
 10 15  1  0  0  0  0
 10 11  2  0  0  0  0
 11 12  1  0  0  0  0
 12 13  2  0  0  0  0
 12 17  1  0  0  0  0
 13 14  1  0  0  0  0
 13 16  1  0  0  0  0
 14 15  2  0  0  0  0
 18 19  2  0  0  0  0
 18 21  1  0  0  0  0
 19 20  1  0  0  0  0
 21 22  1  0  0  0  0
 22 27  1  0  0  0  0
 22 23  2  0  0  0  0
 23 24  1  0  0  0  0
 24 25  2  0  0  0  0
 24 29  1  0  0  0  0
 25 26  1  0  0  0  0
 25 28  1  0  0  0  0
 26 27  2  0  0  0  0
M  END
> <MW>
403.34

> <EC50>
0.85

$$$$
MMV669008
 OpenBabel06241423362D

 32 36  0  0  0  0  0  0  0  0999 V2000
    0.0000   -1.0000    0.0000 N   0  0  0  0  0  0  0  0  0  0  0  0
    0.0000    0.0000    0.0000 C   0  0  0  0  0  0  0  0  0  0  0  0
    1.0000    0.0000    0.0000 C   0  0  0  0  0  0  0  0  0  0  0  0
    1.0000   -1.0000    0.0000 C   0  0  0  0  0  0  0  0  0  0  0  0
    1.7071    0.7071    0.0000 O   0  0  0  0  0  0  0  0  0  0  0  0
    2.6730    0.4483    0.0000 C   0  0  0  0  0  0  0  0  0  0  0  0
    3.3801    1.1554    0.0000 C   0  0  0  0  0  0  0  0  0  0  0  0
    4.3461    0.8966    0.0000 C   0  0  0  0  0  0  0  0  0  0  0  0
    4.6049   -0.0694    0.0000 C   0  0  0  0  0  0  0  0  0  0  0  0
    3.8978   -0.7765    0.0000 C   0  0  0  0  0  0  0  0  0  0  0  0
    2.9319   -0.5176    0.0000 C   0  0  0  0  0  0  0  0  0  0  0  0
    5.5708   -0.3282    0.0000 F   0  0  0  0  0  0  0  0  0  0  0  0
    5.0532    1.6037    0.0000 F   0  0  0  0  0  0  0  0  0  0  0  0
   -0.7071   -1.7071    0.0000 C   0  0  0  0  0  0  0  0  0  0  0  0
   -0.4483   -2.6730    0.0000 C   0  0  0  0  0  0  0  0  0  0  0  0
   -1.1554   -3.3801    0.0000 N   0  0  0  0  0  0  0  0  0  0  0  0
   -2.1213   -3.1213    0.0000 C   0  0  0  0  0  0  0  0  0  0  0  0
   -2.3801   -2.1554    0.0000 C   0  0  0  0  0  0  0  0  0  0  0  0
   -1.6730   -1.4483    0.0000 N   0  0  0  0  0  0  0  0  0  0  0  0
   -2.1270   -0.5573    0.0000 C   0  0  0  0  0  0  0  0  0  0  0  0
   -3.1147   -0.7137    0.0000 N   0  0  0  0  0  0  0  0  0  0  0  0
   -3.2711   -1.7014    0.0000 N   0  0  0  0  0  0  0  0  0  0  0  0
   -1.6730    0.3337    0.0000 C   0  0  0  0  0  0  0  0  0  0  0  0
   -2.2177    1.1724    0.0000 C   0  0  0  0  0  0  0  0  0  0  0  0
   -1.7637    2.0634    0.0000 C   0  0  0  0  0  0  0  0  0  0  0  0
   -0.7651    2.1157    0.0000 C   0  0  0  0  0  0  0  0  0  0  0  0
   -0.2204    1.2771    0.0000 C   0  0  0  0  0  0  0  0  0  0  0  0
   -0.6744    0.3861    0.0000 C   0  0  0  0  0  0  0  0  0  0  0  0
   -0.3111    3.0067    0.0000 O   0  0  0  0  0  0  0  0  0  0  0  0
    0.6876    3.0591    0.0000 C   0  0  0  0  0  0  0  0  0  0  0  0
    1.2322    2.2204    0.0000 F   0  0  0  0  0  0  0  0  0  0  0  0
    1.1416    3.9501    0.0000 F   0  0  0  0  0  0  0  0  0  0  0  0
  1  4  1  0  0  0  0
  1  2  1  0  0  0  0
  1 14  1  0  0  0  0
  2  3  1  0  0  0  0
  3  4  1  0  0  0  0
  3  5  1  0  0  0  0
  5  6  1  0  0  0  0
  6 11  1  0  0  0  0
  6  7  2  0  0  0  0
  7  8  1  0  0  0  0
  8  9  2  0  0  0  0
  8 13  1  0  0  0  0
  9 10  1  0  0  0  0
  9 12  1  0  0  0  0
 10 11  2  0  0  0  0
 14 19  1  0  0  0  0
 14 15  2  0  0  0  0
 15 16  1  0  0  0  0
 16 17  2  0  0  0  0
 17 18  1  0  0  0  0
 18 22  2  0  0  0  0
 18 19  1  0  0  0  0
 19 20  1  0  0  0  0
 20 21  2  0  0  0  0
 20 23  1  0  0  0  0
 21 22  1  0  0  0  0
 23 28  1  0  0  0  0
 23 24  2  0  0  0  0
 24 25  1  0  0  0  0
 25 26  2  0  0  0  0
 26 27  1  0  0  0  0
 26 29  1  0  0  0  0
 27 28  2  0  0  0  0
 29 30  1  0  0  0  0
 30 31  1  0  0  0  0
 30 32  1  0  0  0  0
M  END
> <MW>
445.38

> <EC50>
4.96

$$$$
MMV669009
 OpenBabel06241423362D

 26 29  0  0  0  0  0  0  0  0999 V2000
    0.7138    4.1723    0.0000 C   0  0  0  0  0  0  0  0  0  0  0  0
   -0.1522    4.6723    0.0000 N   0  0  0  0  0  0  0  0  0  0  0  0
   -1.0182    4.1723    0.0000 C   0  0  0  0  0  0  0  0  0  0  0  0
   -1.0182    3.1723    0.0000 C   0  0  0  0  0  0  0  0  0  0  0  0
   -0.1522    2.6723    0.0000 N   0  0  0  0  0  0  0  0  0  0  0  0
    0.7138    3.1723    0.0000 C   0  0  0  0  0  0  0  0  0  0  0  0
    1.5798    2.6723    0.0000 O   0  0  0  0  0  0  0  0  0  0  0  0
    2.4459    3.1723    0.0000 C   0  0  0  0  0  0  0  0  0  0  0  0
    3.3119    2.6723    0.0000 C   0  0  0  0  0  0  0  0  0  0  0  0
    4.1779    3.1723    0.0000 C   0  0  0  0  0  0  0  0  0  0  0  0
    4.1779    4.1723    0.0000 C   0  0  0  0  0  0  0  0  0  0  0  0
    5.0440    4.6723    0.0000 C   0  0  0  0  0  0  0  0  0  0  0  0
    5.9100    4.1723    0.0000 C   0  0  0  0  0  0  0  0  0  0  0  0
    5.9100    3.1723    0.0000 C   0  0  0  0  0  0  0  0  0  0  0  0
    5.0440    2.6723    0.0000 C   0  0  0  0  0  0  0  0  0  0  0  0
    6.7760    4.6723    0.0000 F   0  0  0  0  0  0  0  0  0  0  0  0
    5.0440    5.6723    0.0000 F   0  0  0  0  0  0  0  0  0  0  0  0
   -0.3601    1.6942    0.0000 C   0  0  0  0  0  0  0  0  0  0  0  0
   -1.3546    1.5897    0.0000 N   0  0  0  0  0  0  0  0  0  0  0  0
   -1.7614    2.5032    0.0000 N   0  0  0  0  0  0  0  0  0  0  0  0
    0.3090    0.9511    0.0000 N   0  0  0  0  0  0  0  0  0  0  0  0
    1.2872    1.1590    0.0000 C   0  0  0  0  0  0  0  0  0  0  0  0
    1.9563    0.4158    0.0000 C   0  0  0  0  0  0  0  0  0  0  0  0
    1.6473   -0.5352    0.0000 C   0  0  0  0  0  0  0  0  0  0  0  0
    0.6691   -0.7431    0.0000 C   0  0  0  0  0  0  0  0  0  0  0  0
    0.0000    0.0000    0.0000 C   0  0  0  0  0  0  0  0  0  0  0  0
  1  6  2  0  0  0  0
  1  2  1  0  0  0  0
  2  3  2  0  0  0  0
  3  4  1  0  0  0  0
  4 20  2  0  0  0  0
  4  5  1  0  0  0  0
  5  6  1  0  0  0  0
  5 18  1  0  0  0  0
  6  7  1  0  0  0  0
  7  8  1  0  0  0  0
  8  9  1  0  0  0  0
  9 10  1  0  0  0  0
 10 15  1  0  0  0  0
 10 11  2  0  0  0  0
 11 12  1  0  0  0  0
 12 13  2  0  0  0  0
 12 17  1  0  0  0  0
 13 14  1  0  0  0  0
 13 16  1  0  0  0  0
 14 15  2  0  0  0  0
 18 19  2  0  0  0  0
 18 21  1  0  0  0  0
 19 20  1  0  0  0  0
 21 26  1  0  0  0  0
 21 22  1  0  0  0  0
 22 23  1  0  0  0  0
 23 24  1  0  0  0  0
 24 25  1  0  0  0  0
 25 26  1  0  0  0  0
M  END
> <MW>
359.38

> <EC50>
2.63

$$$$
MMV669010
 OpenBabel06241423362D

 33 37  0  0  0  0  0  0  0  0999 V2000
    3.9703    1.4680    0.0000 C   0  0  0  0  0  0  0  0  0  0  0  0
    3.9703    2.4680    0.0000 N   0  0  0  0  0  0  0  0  0  0  0  0
    3.1042    2.9680    0.0000 C   0  0  0  0  0  0  0  0  0  0  0  0
    2.2382    2.4680    0.0000 C   0  0  0  0  0  0  0  0  0  0  0  0
    2.2382    1.4680    0.0000 N   0  0  0  0  0  0  0  0  0  0  0  0
    3.1042    0.9680    0.0000 C   0  0  0  0  0  0  0  0  0  0  0  0
    3.1042   -0.0320    0.0000 C   0  0  0  0  0  0  0  0  0  0  0  0
    3.9703   -0.5320    0.0000 N   0  0  0  0  0  0  0  0  0  0  0  0
    3.9703   -1.5320    0.0000 C   0  0  0  0  0  0  0  0  0  0  0  0
    4.8363   -2.0320    0.0000 C   0  0  0  0  0  0  0  0  0  0  0  0
    5.7023   -1.5320    0.0000 N   0  0  0  0  0  0  0  0  0  0  0  0
    5.7023   -0.5320    0.0000 C   0  0  0  0  0  0  0  0  0  0  0  0
    4.8363   -0.0320    0.0000 C   0  0  0  0  0  0  0  0  0  0  0  0
    6.5683   -2.0320    0.0000 C   0  0  0  0  0  0  0  0  0  0  0  0
    6.5683   -3.0320    0.0000 N   0  0  0  0  0  0  0  0  0  0  0  0
    7.4344   -3.5320    0.0000 C   0  0  0  0  0  0  0  0  0  0  0  0
    8.3004   -3.0320    0.0000 C   0  0  0  0  0  0  0  0  0  0  0  0
    8.3004   -2.0320    0.0000 C   0  0  0  0  0  0  0  0  0  0  0  0
    7.4344   -1.5320    0.0000 C   0  0  0  0  0  0  0  0  0  0  0  0
    2.2382   -0.5320    0.0000 O   0  0  0  0  0  0  0  0  0  0  0  0
    1.2872    1.1590    0.0000 C   0  0  0  0  0  0  0  0  0  0  0  0
    0.6994    1.9680    0.0000 N   0  0  0  0  0  0  0  0  0  0  0  0
    1.2872    2.7770    0.0000 N   0  0  0  0  0  0  0  0  0  0  0  0
    0.9781    0.2079    0.0000 C   0  0  0  0  0  0  0  0  0  0  0  0
    1.6473   -0.5352    0.0000 C   0  0  0  0  0  0  0  0  0  0  0  0
    1.3383   -1.4863    0.0000 C   0  0  0  0  0  0  0  0  0  0  0  0
    0.3601   -1.6942    0.0000 C   0  0  0  0  0  0  0  0  0  0  0  0
   -0.3090   -0.9511    0.0000 C   0  0  0  0  0  0  0  0  0  0  0  0
    0.0000    0.0000    0.0000 C   0  0  0  0  0  0  0  0  0  0  0  0
    0.0511   -2.6453    0.0000 O   0  0  0  0  0  0  0  0  0  0  0  0
   -0.9271   -2.8532    0.0000 C   0  0  0  0  0  0  0  0  0  0  0  0
   -1.5962   -2.1100    0.0000 F   0  0  0  0  0  0  0  0  0  0  0  0
   -1.2361   -3.8042    0.0000 F   0  0  0  0  0  0  0  0  0  0  0  0
  1  6  2  0  0  0  0
  1  2  1  0  0  0  0
  2  3  2  0  0  0  0
  3  4  1  0  0  0  0
  4 23  2  0  0  0  0
  4  5  1  0  0  0  0
  5  6  1  0  0  0  0
  5 21  1  0  0  0  0
  6  7  1  0  0  0  0
  7  8  1  0  0  0  0
  7 20  2  0  0  0  0
  8 13  1  0  0  0  0
  8  9  1  0  0  0  0
  9 10  1  0  0  0  0
 10 11  1  0  0  0  0
 11 12  1  0  0  0  0
 11 14  1  0  0  0  0
 12 13  1  0  0  0  0
 14 19  1  0  0  0  0
 14 15  2  0  0  0  0
 15 16  1  0  0  0  0
 16 17  2  0  0  0  0
 17 18  1  0  0  0  0
 18 19  2  0  0  0  0
 21 22  2  0  0  0  0
 21 24  1  0  0  0  0
 22 23  1  0  0  0  0
 24 29  1  0  0  0  0
 24 25  2  0  0  0  0
 25 26  1  0  0  0  0
 26 27  2  0  0  0  0
 27 28  1  0  0  0  0
 27 30  1  0  0  0  0
 28 29  2  0  0  0  0
 30 31  1  0  0  0  0
 31 32  1  0  0  0  0
 31 33  1  0  0  0  0
M  END
> <MW>
451.44

> <EC50>
10

$$$$
MMV669011
 OpenBabel06241423362D

 30 33  0  0  0  0  0  0  0  0999 V2000
   -0.7138   -4.1723    0.0000 C   0  0  0  0  0  0  0  0  0  0  0  0
    0.1522   -4.6723    0.0000 N   0  0  0  0  0  0  0  0  0  0  0  0
    1.0182   -4.1723    0.0000 C   0  0  0  0  0  0  0  0  0  0  0  0
    1.0182   -3.1723    0.0000 C   0  0  0  0  0  0  0  0  0  0  0  0
    0.1522   -2.6723    0.0000 N   0  0  0  0  0  0  0  0  0  0  0  0
   -0.7138   -3.1723    0.0000 C   0  0  0  0  0  0  0  0  0  0  0  0
   -1.5798   -2.6723    0.0000 C   0  0  0  0  0  0  0  0  0  0  0  0
   -1.5798   -1.6723    0.0000 N   0  0  0  0  0  0  0  0  0  0  0  0
   -2.4459   -1.1723    0.0000 C   0  0  0  0  0  0  0  0  0  0  0  0
   -3.3119   -1.6723    0.0000 C   0  0  0  0  0  0  0  0  0  0  0  0
   -4.1779   -1.1723    0.0000 N   0  0  0  0  0  0  0  0  0  0  0  0
   -5.0440   -1.6723    0.0000 C   0  0  0  0  0  0  0  0  0  0  0  0
   -5.9100   -1.1723    0.0000 C   0  0  0  0  0  0  0  0  0  0  0  0
   -5.9100   -0.1723    0.0000 O   0  0  0  0  0  0  0  0  0  0  0  0
   -5.0440    0.3277    0.0000 C   0  0  0  0  0  0  0  0  0  0  0  0
   -4.1779   -0.1723    0.0000 C   0  0  0  0  0  0  0  0  0  0  0  0
   -2.4459   -3.1723    0.0000 O   0  0  0  0  0  0  0  0  0  0  0  0
    0.3601   -1.6942    0.0000 C   0  0  0  0  0  0  0  0  0  0  0  0
    1.3546   -1.5897    0.0000 N   0  0  0  0  0  0  0  0  0  0  0  0
    1.7614   -2.5032    0.0000 N   0  0  0  0  0  0  0  0  0  0  0  0
   -0.3090   -0.9511    0.0000 C   0  0  0  0  0  0  0  0  0  0  0  0
   -1.2872   -1.1590    0.0000 C   0  0  0  0  0  0  0  0  0  0  0  0
   -1.9563   -0.4158    0.0000 C   0  0  0  0  0  0  0  0  0  0  0  0
   -1.6473    0.5352    0.0000 C   0  0  0  0  0  0  0  0  0  0  0  0
   -0.6691    0.7431    0.0000 C   0  0  0  0  0  0  0  0  0  0  0  0
    0.0000    0.0000    0.0000 C   0  0  0  0  0  0  0  0  0  0  0  0
   -2.3164    1.2784    0.0000 O   0  0  0  0  0  0  0  0  0  0  0  0
   -3.2946    1.0705    0.0000 C   0  0  0  0  0  0  0  0  0  0  0  0
   -3.9637    1.8136    0.0000 F   0  0  0  0  0  0  0  0  0  0  0  0
   -3.6036    0.1194    0.0000 F   0  0  0  0  0  0  0  0  0  0  0  0
  1  6  2  0  0  0  0
  1  2  1  0  0  0  0
  2  3  2  0  0  0  0
  3  4  1  0  0  0  0
  4 20  2  0  0  0  0
  4  5  1  0  0  0  0
  5  6  1  0  0  0  0
  5 18  1  0  0  0  0
  6  7  1  0  0  0  0
  7  8  1  0  0  0  0
  7 17  2  0  0  0  0
  8  9  1  0  0  0  0
  9 10  1  0  0  0  0
 10 11  1  0  0  0  0
 11 16  1  0  0  0  0
 11 12  1  0  0  0  0
 12 13  1  0  0  0  0
 13 14  1  0  0  0  0
 14 15  1  0  0  0  0
 15 16  1  0  0  0  0
 18 19  2  0  0  0  0
 18 21  1  0  0  0  0
 19 20  1  0  0  0  0
 21 26  1  0  0  0  0
 21 22  2  0  0  0  0
 22 23  1  0  0  0  0
 23 24  2  0  0  0  0
 24 25  1  0  0  0  0
 24 27  1  0  0  0  0
 25 26  2  0  0  0  0
 27 28  1  0  0  0  0
 28 29  1  0  0  0  0
 28 30  1  0  0  0  0
M  END
> <MW>
418.4

> <EC50>
10

$$$$
MMV669020
 OpenBabel06241423362D

 27 30  0  0  0  0  0  0  0  0999 V2000
    3.9703    1.4680    0.0000 C   0  0  0  0  0  0  0  0  0  0  0  0
    3.9703    2.4680    0.0000 N   0  0  0  0  0  0  0  0  0  0  0  0
    3.1042    2.9680    0.0000 C   0  0  0  0  0  0  0  0  0  0  0  0
    2.2382    2.4680    0.0000 C   0  0  0  0  0  0  0  0  0  0  0  0
    2.2382    1.4680    0.0000 N   0  0  0  0  0  0  0  0  0  0  0  0
    3.1042    0.9680    0.0000 C   0  0  0  0  0  0  0  0  0  0  0  0
    3.1042   -0.0320    0.0000 C   0  0  0  0  0  0  0  0  0  0  0  0
    3.9703   -0.5320    0.0000 N   0  0  0  0  0  0  0  0  0  0  0  0
    3.9703   -1.5320    0.0000 C   0  0  0  0  0  0  0  0  0  0  0  0
    4.8363   -2.0320    0.0000 C   0  0  0  0  0  0  0  0  0  0  0  0
    5.7023   -1.5320    0.0000 O   0  0  0  0  0  0  0  0  0  0  0  0
    5.7023   -0.5320    0.0000 C   0  0  0  0  0  0  0  0  0  0  0  0
    4.8363   -0.0320    0.0000 C   0  0  0  0  0  0  0  0  0  0  0  0
    2.2382   -0.5320    0.0000 O   0  0  0  0  0  0  0  0  0  0  0  0
    1.2872    1.1590    0.0000 C   0  0  0  0  0  0  0  0  0  0  0  0
    0.6994    1.9680    0.0000 N   0  0  0  0  0  0  0  0  0  0  0  0
    1.2872    2.7770    0.0000 N   0  0  0  0  0  0  0  0  0  0  0  0
    0.9781    0.2079    0.0000 C   0  0  0  0  0  0  0  0  0  0  0  0
    1.6473   -0.5352    0.0000 C   0  0  0  0  0  0  0  0  0  0  0  0
    1.3383   -1.4863    0.0000 C   0  0  0  0  0  0  0  0  0  0  0  0
    0.3601   -1.6942    0.0000 C   0  0  0  0  0  0  0  0  0  0  0  0
   -0.3090   -0.9511    0.0000 C   0  0  0  0  0  0  0  0  0  0  0  0
    0.0000    0.0000    0.0000 C   0  0  0  0  0  0  0  0  0  0  0  0
    0.0511   -2.6453    0.0000 O   0  0  0  0  0  0  0  0  0  0  0  0
   -0.9271   -2.8532    0.0000 C   0  0  0  0  0  0  0  0  0  0  0  0
   -1.5962   -2.1100    0.0000 F   0  0  0  0  0  0  0  0  0  0  0  0
   -1.2361   -3.8042    0.0000 F   0  0  0  0  0  0  0  0  0  0  0  0
  1  6  2  0  0  0  0
  1  2  1  0  0  0  0
  2  3  2  0  0  0  0
  3  4  1  0  0  0  0
  4 17  2  0  0  0  0
  4  5  1  0  0  0  0
  5  6  1  0  0  0  0
  5 15  1  0  0  0  0
  6  7  1  0  0  0  0
  7  8  1  0  0  0  0
  7 14  2  0  0  0  0
  8 13  1  0  0  0  0
  8  9  1  0  0  0  0
  9 10  1  0  0  0  0
 10 11  1  0  0  0  0
 11 12  1  0  0  0  0
 12 13  1  0  0  0  0
 15 16  2  0  0  0  0
 15 18  1  0  0  0  0
 16 17  1  0  0  0  0
 18 23  1  0  0  0  0
 18 19  2  0  0  0  0
 19 20  1  0  0  0  0
 20 21  2  0  0  0  0
 21 22  1  0  0  0  0
 21 24  1  0  0  0  0
 22 23  2  0  0  0  0
 24 25  1  0  0  0  0
 25 26  1  0  0  0  0
 25 27  1  0  0  0  0
M  END
> <MW>
375.33

> <EC50>
10

$$$$
MMV669021
 OpenBabel06241423362D

 31 34  0  0  1  0  0  0  0  0999 V2000
    3.2564   -2.7044    0.0000 C   0  0  0  0  0  0  0  0  0  0  0  0
    4.1225   -2.2044    0.0000 N   0  0  0  0  0  0  0  0  0  0  0  0
    4.1225   -1.2044    0.0000 C   0  0  0  0  0  0  0  0  0  0  0  0
    3.2564   -0.7044    0.0000 C   0  0  0  0  0  0  0  0  0  0  0  0
    2.3904   -1.2044    0.0000 N   0  0  0  0  0  0  0  0  0  0  0  0
    2.3904   -2.2044    0.0000 C   0  0  0  0  0  0  0  0  0  0  0  0
    1.5244   -2.7044    0.0000 C   0  0  0  0  0  0  0  0  0  0  0  0
    0.6584   -2.2044    0.0000 O   0  0  0  0  0  0  0  0  0  0  0  0
    1.5244   -3.7044    0.0000 N   0  0  0  0  0  0  0  0  0  0  0  0
    0.6584   -4.2044    0.0000 C   0  0  2  0  0  0  0  0  0  0  0  0
    0.1584   -5.0704    0.0000 H   0  0  0  0  0  0  0  0  0  0  0  0
   -0.2077   -3.7044    0.0000 C   0  0  0  0  0  0  0  0  0  0  0  0
   -1.0737   -4.2044    0.0000 C   0  0  0  0  0  0  0  0  0  0  0  0
   -1.9397   -3.7044    0.0000 C   0  0  0  0  0  0  0  0  0  0  0  0
   -1.9397   -2.7044    0.0000 C   0  0  0  0  0  0  0  0  0  0  0  0
   -1.0737   -2.2044    0.0000 C   0  0  0  0  0  0  0  0  0  0  0  0
   -0.2077   -2.7044    0.0000 C   0  0  0  0  0  0  0  0  0  0  0  0
    1.1584   -5.0704    0.0000 C   0  0  0  0  0  0  0  0  0  0  0  0
    1.6473   -0.5352    0.0000 C   0  0  0  0  0  0  0  0  0  0  0  0
    2.0540    0.3783    0.0000 N   0  0  0  0  0  0  0  0  0  0  0  0
    3.0485    0.2738    0.0000 N   0  0  0  0  0  0  0  0  0  0  0  0
    0.6691   -0.7431    0.0000 C   0  0  0  0  0  0  0  0  0  0  0  0
    0.3601   -1.6942    0.0000 C   0  0  0  0  0  0  0  0  0  0  0  0
   -0.6180   -1.9021    0.0000 C   0  0  0  0  0  0  0  0  0  0  0  0
   -1.2872   -1.1590    0.0000 C   0  0  0  0  0  0  0  0  0  0  0  0
   -0.9781   -0.2079    0.0000 C   0  0  0  0  0  0  0  0  0  0  0  0
    0.0000    0.0000    0.0000 C   0  0  0  0  0  0  0  0  0  0  0  0
   -2.2653   -1.3669    0.0000 O   0  0  0  0  0  0  0  0  0  0  0  0
   -2.9344   -0.6237    0.0000 C   0  0  0  0  0  0  0  0  0  0  0  0
   -2.6254    0.3273    0.0000 F   0  0  0  0  0  0  0  0  0  0  0  0
   -3.9126   -0.8316    0.0000 F   0  0  0  0  0  0  0  0  0  0  0  0
  1  6  2  0  0  0  0
  1  2  1  0  0  0  0
  2  3  2  0  0  0  0
  3  4  1  0  0  0  0
  4 21  2  0  0  0  0
  4  5  1  0  0  0  0
  5  6  1  0  0  0  0
  5 19  1  0  0  0  0
  6  7  1  0  0  0  0
  7  8  2  0  0  0  0
  7  9  1  0  0  0  0
  9 10  1  0  0  0  0
 10 11  1  6  0  0  0
 10 12  1  0  0  0  0
 10 18  1  0  0  0  0
 12 17  1  0  0  0  0
 12 13  2  0  0  0  0
 13 14  1  0  0  0  0
 14 15  2  0  0  0  0
 15 16  1  0  0  0  0
 16 17  2  0  0  0  0
 19 20  2  0  0  0  0
 19 22  1  0  0  0  0
 20 21  1  0  0  0  0
 22 27  1  0  0  0  0
 22 23  2  0  0  0  0
 23 24  1  0  0  0  0
 24 25  2  0  0  0  0
 25 26  1  0  0  0  0
 25 28  1  0  0  0  0
 26 27  2  0  0  0  0
 28 29  1  0  0  0  0
 29 30  1  0  0  0  0
 29 31  1  0  0  0  0
M  END
> <MW>
409.4

> <EC50>
1.6

$$$$
MMV669022
 OpenBabel06241423362D

 26 29  0  0  0  0  0  0  0  0999 V2000
    3.9328   -1.5657    0.0000 C   0  0  0  0  0  0  0  0  0  0  0  0
    4.6019   -0.8226    0.0000 N   0  0  0  0  0  0  0  0  0  0  0  0
    4.2929    0.1285    0.0000 C   0  0  0  0  0  0  0  0  0  0  0  0
    3.3147    0.3364    0.0000 C   0  0  0  0  0  0  0  0  0  0  0  0
    2.6456   -0.4067    0.0000 N   0  0  0  0  0  0  0  0  0  0  0  0
    2.9546   -1.3578    0.0000 C   0  0  0  0  0  0  0  0  0  0  0  0
    2.2855   -2.1009    0.0000 C   0  0  0  0  0  0  0  0  0  0  0  0
    2.5945   -3.0520    0.0000 N   0  0  0  0  0  0  0  0  0  0  0  0
    2.0067   -3.8610    0.0000 C   0  0  0  0  0  0  0  0  0  0  0  0
    2.5945   -4.6700    0.0000 C   0  0  0  0  0  0  0  0  0  0  0  0
    3.5456   -4.3610    0.0000 C   0  0  0  0  0  0  0  0  0  0  0  0
    3.5456   -3.3610    0.0000 C   0  0  0  0  0  0  0  0  0  0  0  0
    1.3073   -1.8930    0.0000 O   0  0  0  0  0  0  0  0  0  0  0  0
    1.7321    0.0000    0.0000 C   0  0  0  0  0  0  0  0  0  0  0  0
    1.8366    0.9945    0.0000 N   0  0  0  0  0  0  0  0  0  0  0  0
    2.8147    1.2024    0.0000 N   0  0  0  0  0  0  0  0  0  0  0  0
    0.8660   -0.5000    0.0000 C   0  0  0  0  0  0  0  0  0  0  0  0
    0.8660   -1.5000    0.0000 C   0  0  0  0  0  0  0  0  0  0  0  0
    0.0000   -2.0000    0.0000 C   0  0  0  0  0  0  0  0  0  0  0  0
   -0.8660   -1.5000    0.0000 C   0  0  0  0  0  0  0  0  0  0  0  0
   -0.8660   -0.5000    0.0000 C   0  0  0  0  0  0  0  0  0  0  0  0
    0.0000    0.0000    0.0000 C   0  0  0  0  0  0  0  0  0  0  0  0
   -1.7321   -2.0000    0.0000 O   0  0  0  0  0  0  0  0  0  0  0  0
   -2.5981   -1.5000    0.0000 C   0  0  0  0  0  0  0  0  0  0  0  0
   -2.5981   -0.5000    0.0000 F   0  0  0  0  0  0  0  0  0  0  0  0
   -3.4641   -2.0000    0.0000 F   0  0  0  0  0  0  0  0  0  0  0  0
  1  6  2  0  0  0  0
  1  2  1  0  0  0  0
  2  3  2  0  0  0  0
  3  4  1  0  0  0  0
  4 16  2  0  0  0  0
  4  5  1  0  0  0  0
  5  6  1  0  0  0  0
  5 14  1  0  0  0  0
  6  7  1  0  0  0  0
  7  8  1  0  0  0  0
  7 13  2  0  0  0  0
  8 12  1  0  0  0  0
  8  9  1  0  0  0  0
  9 10  1  0  0  0  0
 10 11  1  0  0  0  0
 11 12  1  0  0  0  0
 14 15  2  0  0  0  0
 14 17  1  0  0  0  0
 15 16  1  0  0  0  0
 17 22  1  0  0  0  0
 17 18  2  0  0  0  0
 18 19  1  0  0  0  0
 19 20  2  0  0  0  0
 20 21  1  0  0  0  0
 20 23  1  0  0  0  0
 21 22  2  0  0  0  0
 23 24  1  0  0  0  0
 24 25  1  0  0  0  0
 24 26  1  0  0  0  0
M  END
> <MW>
359.34

> <EC50>
10

$$$$
MMV669023
 OpenBabel06241423362D

 31 34  0  0  0  0  0  0  0  0999 V2000
    4.0000   -2.7321    0.0000 C   0  0  0  0  0  0  0  0  0  0  0  0
    4.5000   -3.5981    0.0000 N   0  0  0  0  0  0  0  0  0  0  0  0
    5.5000   -3.5981    0.0000 C   0  0  0  0  0  0  0  0  0  0  0  0
    6.0000   -2.7321    0.0000 C   0  0  0  0  0  0  0  0  0  0  0  0
    5.5000   -1.8660    0.0000 N   0  0  0  0  0  0  0  0  0  0  0  0
    4.5000   -1.8660    0.0000 C   0  0  0  0  0  0  0  0  0  0  0  0
    4.0000   -1.0000    0.0000 C   0  0  0  0  0  0  0  0  0  0  0  0
    3.0000   -1.0000    0.0000 N   0  0  0  0  0  0  0  0  0  0  0  0
    2.5000   -0.1340    0.0000 C   0  0  0  0  0  0  0  0  0  0  0  0
    1.5000   -0.1340    0.0000 C   0  0  0  0  0  0  0  0  0  0  0  0
    1.0000   -1.0000    0.0000 N   0  0  0  0  0  0  0  0  0  0  0  0
    1.5000   -1.8660    0.0000 C   0  0  0  0  0  0  0  0  0  0  0  0
    2.5000   -1.8660    0.0000 C   0  0  0  0  0  0  0  0  0  0  0  0
    0.0000   -1.0000    0.0000 S   0  0  0  0  0  0  0  0  0  0  0  0
    0.0000   -2.0000    0.0000 O   0  0  0  0  0  0  0  0  0  0  0  0
   -1.0000   -1.0000    0.0000 C   0  0  0  0  0  0  0  0  0  0  0  0
    0.0000    0.0000    0.0000 O   0  0  0  0  0  0  0  0  0  0  0  0
    4.5000   -0.1340    0.0000 O   0  0  0  0  0  0  0  0  0  0  0  0
    6.1691   -1.1229    0.0000 C   0  0  0  0  0  0  0  0  0  0  0  0
    7.0827   -1.5296    0.0000 N   0  0  0  0  0  0  0  0  0  0  0  0
    6.9781   -2.5241    0.0000 N   0  0  0  0  0  0  0  0  0  0  0  0
    5.9612   -0.1447    0.0000 C   0  0  0  0  0  0  0  0  0  0  0  0
    5.0102    0.1643    0.0000 C   0  0  0  0  0  0  0  0  0  0  0  0
    4.8023    1.1424    0.0000 C   0  0  0  0  0  0  0  0  0  0  0  0
    5.5454    1.8116    0.0000 C   0  0  0  0  0  0  0  0  0  0  0  0
    6.4965    1.5025    0.0000 C   0  0  0  0  0  0  0  0  0  0  0  0
    6.7044    0.5244    0.0000 C   0  0  0  0  0  0  0  0  0  0  0  0
    5.3375    2.7897    0.0000 O   0  0  0  0  0  0  0  0  0  0  0  0
    6.0806    3.4588    0.0000 C   0  0  0  0  0  0  0  0  0  0  0  0
    7.0317    3.1498    0.0000 F   0  0  0  0  0  0  0  0  0  0  0  0
    5.8727    4.4370    0.0000 F   0  0  0  0  0  0  0  0  0  0  0  0
  1  6  2  0  0  0  0
  1  2  1  0  0  0  0
  2  3  2  0  0  0  0
  3  4  1  0  0  0  0
  4 21  2  0  0  0  0
  4  5  1  0  0  0  0
  5  6  1  0  0  0  0
  5 19  1  0  0  0  0
  6  7  1  0  0  0  0
  7  8  1  0  0  0  0
  7 18  2  0  0  0  0
  8 13  1  0  0  0  0
  8  9  1  0  0  0  0
  9 10  1  0  0  0  0
 10 11  1  0  0  0  0
 11 12  1  0  0  0  0
 11 14  1  0  0  0  0
 12 13  1  0  0  0  0
 14 15  2  0  0  0  0
 14 16  1  0  0  0  0
 14 17  2  0  0  0  0
 19 20  2  0  0  0  0
 19 22  1  0  0  0  0
 20 21  1  0  0  0  0
 22 27  1  0  0  0  0
 22 23  2  0  0  0  0
 23 24  1  0  0  0  0
 24 25  2  0  0  0  0
 25 26  1  0  0  0  0
 25 28  1  0  0  0  0
 26 27  2  0  0  0  0
 28 29  1  0  0  0  0
 29 30  1  0  0  0  0
 29 31  1  0  0  0  0
M  END
> <MW>
452.44

> <EC50>
10

$$$$
MMV669024
 OpenBabel06241423362D

 31 34  0  0  1  0  0  0  0  0999 V2000
    3.2564   -2.7044    0.0000 C   0  0  0  0  0  0  0  0  0  0  0  0
    4.1225   -2.2044    0.0000 N   0  0  0  0  0  0  0  0  0  0  0  0
    4.1225   -1.2044    0.0000 C   0  0  0  0  0  0  0  0  0  0  0  0
    3.2564   -0.7044    0.0000 C   0  0  0  0  0  0  0  0  0  0  0  0
    2.3904   -1.2044    0.0000 N   0  0  0  0  0  0  0  0  0  0  0  0
    2.3904   -2.2044    0.0000 C   0  0  0  0  0  0  0  0  0  0  0  0
    1.5244   -2.7044    0.0000 C   0  0  0  0  0  0  0  0  0  0  0  0
    0.6584   -2.2044    0.0000 O   0  0  0  0  0  0  0  0  0  0  0  0
    1.5244   -3.7044    0.0000 N   0  0  0  0  0  0  0  0  0  0  0  0
    0.6584   -4.2044    0.0000 C   0  0  1  0  0  0  0  0  0  0  0  0
    0.1584   -5.0704    0.0000 H   0  0  0  0  0  0  0  0  0  0  0  0
   -0.2077   -3.7044    0.0000 C   0  0  0  0  0  0  0  0  0  0  0  0
   -1.0737   -4.2044    0.0000 C   0  0  0  0  0  0  0  0  0  0  0  0
   -1.9397   -3.7044    0.0000 C   0  0  0  0  0  0  0  0  0  0  0  0
   -1.9397   -2.7044    0.0000 C   0  0  0  0  0  0  0  0  0  0  0  0
   -1.0737   -2.2044    0.0000 C   0  0  0  0  0  0  0  0  0  0  0  0
   -0.2077   -2.7044    0.0000 C   0  0  0  0  0  0  0  0  0  0  0  0
    1.1584   -5.0704    0.0000 C   0  0  0  0  0  0  0  0  0  0  0  0
    1.6473   -0.5352    0.0000 C   0  0  0  0  0  0  0  0  0  0  0  0
    2.0540    0.3783    0.0000 N   0  0  0  0  0  0  0  0  0  0  0  0
    3.0485    0.2738    0.0000 N   0  0  0  0  0  0  0  0  0  0  0  0
    0.6691   -0.7431    0.0000 C   0  0  0  0  0  0  0  0  0  0  0  0
    0.3601   -1.6942    0.0000 C   0  0  0  0  0  0  0  0  0  0  0  0
   -0.6180   -1.9021    0.0000 C   0  0  0  0  0  0  0  0  0  0  0  0
   -1.2872   -1.1590    0.0000 C   0  0  0  0  0  0  0  0  0  0  0  0
   -0.9781   -0.2079    0.0000 C   0  0  0  0  0  0  0  0  0  0  0  0
    0.0000    0.0000    0.0000 C   0  0  0  0  0  0  0  0  0  0  0  0
   -2.2653   -1.3669    0.0000 O   0  0  0  0  0  0  0  0  0  0  0  0
   -2.9344   -0.6237    0.0000 C   0  0  0  0  0  0  0  0  0  0  0  0
   -2.6254    0.3273    0.0000 F   0  0  0  0  0  0  0  0  0  0  0  0
   -3.9126   -0.8316    0.0000 F   0  0  0  0  0  0  0  0  0  0  0  0
  1  6  2  0  0  0  0
  1  2  1  0  0  0  0
  2  3  2  0  0  0  0
  3  4  1  0  0  0  0
  4 21  2  0  0  0  0
  4  5  1  0  0  0  0
  5  6  1  0  0  0  0
  5 19  1  0  0  0  0
  6  7  1  0  0  0  0
  7  8  2  0  0  0  0
  7  9  1  0  0  0  0
  9 10  1  0  0  0  0
 10 11  1  1  0  0  0
 10 12  1  0  0  0  0
 10 18  1  0  0  0  0
 12 17  1  0  0  0  0
 12 13  2  0  0  0  0
 13 14  1  0  0  0  0
 14 15  2  0  0  0  0
 15 16  1  0  0  0  0
 16 17  2  0  0  0  0
 19 20  2  0  0  0  0
 19 22  1  0  0  0  0
 20 21  1  0  0  0  0
 22 27  1  0  0  0  0
 22 23  2  0  0  0  0
 23 24  1  0  0  0  0
 24 25  2  0  0  0  0
 25 26  1  0  0  0  0
 25 28  1  0  0  0  0
 26 27  2  0  0  0  0
 28 29  1  0  0  0  0
 29 30  1  0  0  0  0
 29 31  1  0  0  0  0
M  END
> <MW>
409.4

> <EC50>
1.36

$$$$
MMV669025
 OpenBabel06241423362D

 31 34  0  0  0  0  0  0  0  0999 V2000
    0.7138    4.1723    0.0000 C   0  0  0  0  0  0  0  0  0  0  0  0
   -0.1522    4.6723    0.0000 N   0  0  0  0  0  0  0  0  0  0  0  0
   -1.0182    4.1723    0.0000 C   0  0  0  0  0  0  0  0  0  0  0  0
   -1.0182    3.1723    0.0000 C   0  0  0  0  0  0  0  0  0  0  0  0
   -0.1522    2.6723    0.0000 N   0  0  0  0  0  0  0  0  0  0  0  0
    0.7138    3.1723    0.0000 C   0  0  0  0  0  0  0  0  0  0  0  0
    1.5798    2.6723    0.0000 O   0  0  0  0  0  0  0  0  0  0  0  0
    2.4459    3.1723    0.0000 C   0  0  0  0  0  0  0  0  0  0  0  0
    3.3119    2.6723    0.0000 C   0  0  0  0  0  0  0  0  0  0  0  0
    4.1779    3.1723    0.0000 C   0  0  0  0  0  0  0  0  0  0  0  0
    4.1779    4.1723    0.0000 C   0  0  0  0  0  0  0  0  0  0  0  0
    5.0440    4.6723    0.0000 C   0  0  0  0  0  0  0  0  0  0  0  0
    5.9100    4.1723    0.0000 C   0  0  0  0  0  0  0  0  0  0  0  0
    5.9100    3.1723    0.0000 C   0  0  0  0  0  0  0  0  0  0  0  0
    5.0440    2.6723    0.0000 C   0  0  0  0  0  0  0  0  0  0  0  0
    6.7760    4.6723    0.0000 F   0  0  0  0  0  0  0  0  0  0  0  0
    5.0440    5.6723    0.0000 F   0  0  0  0  0  0  0  0  0  0  0  0
   -0.3601    1.6942    0.0000 C   0  0  0  0  0  0  0  0  0  0  0  0
   -1.3546    1.5897    0.0000 N   0  0  0  0  0  0  0  0  0  0  0  0
   -1.7614    2.5032    0.0000 N   0  0  0  0  0  0  0  0  0  0  0  0
    0.3090    0.9511    0.0000 C   0  0  0  0  0  0  0  0  0  0  0  0
    1.2872    1.1590    0.0000 C   0  0  0  0  0  0  0  0  0  0  0  0
    1.9563    0.4158    0.0000 C   0  0  0  0  0  0  0  0  0  0  0  0
    1.6473   -0.5352    0.0000 C   0  0  0  0  0  0  0  0  0  0  0  0
    0.6691   -0.7431    0.0000 C   0  0  0  0  0  0  0  0  0  0  0  0
    0.0000    0.0000    0.0000 C   0  0  0  0  0  0  0  0  0  0  0  0
    2.3164   -1.2784    0.0000 O   0  0  0  0  0  0  0  0  0  0  0  0
    2.0074   -2.2294    0.0000 C   0  0  0  0  0  0  0  0  0  0  0  0
    1.0292   -2.4373    0.0000 F   0  0  0  0  0  0  0  0  0  0  0  0
    2.6765   -2.9726    0.0000 F   0  0  0  0  0  0  0  0  0  0  0  0
   -1.8843    4.6723    0.0000 O   0  0  0  0  0  0  0  0  0  0  0  0
  1  6  2  0  0  0  0
  1  2  1  0  0  0  0
  2  3  1  0  0  0  0
  3  4  1  0  0  0  0
  3 31  2  0  0  0  0
  4 20  2  0  0  0  0
  4  5  1  0  0  0  0
  5  6  1  0  0  0  0
  5 18  1  0  0  0  0
  6  7  1  0  0  0  0
  7  8  1  0  0  0  0
  8  9  1  0  0  0  0
  9 10  1  0  0  0  0
 10 15  1  0  0  0  0
 10 11  2  0  0  0  0
 11 12  1  0  0  0  0
 12 13  2  0  0  0  0
 12 17  1  0  0  0  0
 13 14  1  0  0  0  0
 13 16  1  0  0  0  0
 14 15  2  0  0  0  0
 18 19  2  0  0  0  0
 18 21  1  0  0  0  0
 19 20  1  0  0  0  0
 21 26  1  0  0  0  0
 21 22  2  0  0  0  0
 22 23  1  0  0  0  0
 23 24  2  0  0  0  0
 24 25  1  0  0  0  0
 24 27  1  0  0  0  0
 25 26  2  0  0  0  0
 27 28  1  0  0  0  0
 28 29  1  0  0  0  0
 28 30  1  0  0  0  0
M  END
> <MW>
434.35

> <EC50>
4.13

$$$$
MMV669026
 OpenBabel06241423362D

 28 31  0  0  0  0  0  0  0  0999 V2000
    3.2564   -2.7044    0.0000 C   0  0  0  0  0  0  0  0  0  0  0  0
    4.1225   -2.2044    0.0000 N   0  0  0  0  0  0  0  0  0  0  0  0
    4.1225   -1.2044    0.0000 C   0  0  0  0  0  0  0  0  0  0  0  0
    3.2564   -0.7044    0.0000 C   0  0  0  0  0  0  0  0  0  0  0  0
    2.3904   -1.2044    0.0000 N   0  0  0  0  0  0  0  0  0  0  0  0
    2.3904   -2.2044    0.0000 C   0  0  0  0  0  0  0  0  0  0  0  0
    1.5244   -2.7044    0.0000 C   0  0  0  0  0  0  0  0  0  0  0  0
    0.6584   -2.2044    0.0000 N   0  0  0  0  0  0  0  0  0  0  0  0
   -0.2077   -2.7044    0.0000 C   0  0  0  0  0  0  0  0  0  0  0  0
   -0.2077   -3.7044    0.0000 N   0  0  0  0  0  0  0  0  0  0  0  0
   -1.0737   -4.2044    0.0000 C   0  0  0  0  0  0  0  0  0  0  0  0
   -1.9397   -3.7044    0.0000 C   0  0  0  0  0  0  0  0  0  0  0  0
   -1.9397   -2.7044    0.0000 C   0  0  0  0  0  0  0  0  0  0  0  0
   -1.0737   -2.2044    0.0000 C   0  0  0  0  0  0  0  0  0  0  0  0
    1.5244   -3.7044    0.0000 O   0  0  0  0  0  0  0  0  0  0  0  0
    1.6473   -0.5352    0.0000 C   0  0  0  0  0  0  0  0  0  0  0  0
    2.0540    0.3783    0.0000 N   0  0  0  0  0  0  0  0  0  0  0  0
    3.0485    0.2738    0.0000 N   0  0  0  0  0  0  0  0  0  0  0  0
    0.6691   -0.7431    0.0000 C   0  0  0  0  0  0  0  0  0  0  0  0
    0.3601   -1.6942    0.0000 C   0  0  0  0  0  0  0  0  0  0  0  0
   -0.6180   -1.9021    0.0000 C   0  0  0  0  0  0  0  0  0  0  0  0
   -1.2872   -1.1590    0.0000 C   0  0  0  0  0  0  0  0  0  0  0  0
   -0.9781   -0.2079    0.0000 C   0  0  0  0  0  0  0  0  0  0  0  0
    0.0000    0.0000    0.0000 C   0  0  0  0  0  0  0  0  0  0  0  0
   -2.2653   -1.3669    0.0000 O   0  0  0  0  0  0  0  0  0  0  0  0
   -2.9344   -0.6237    0.0000 C   0  0  0  0  0  0  0  0  0  0  0  0
   -2.6254    0.3273    0.0000 F   0  0  0  0  0  0  0  0  0  0  0  0
   -3.9126   -0.8316    0.0000 F   0  0  0  0  0  0  0  0  0  0  0  0
  1  6  2  0  0  0  0
  1  2  1  0  0  0  0
  2  3  2  0  0  0  0
  3  4  1  0  0  0  0
  4 18  2  0  0  0  0
  4  5  1  0  0  0  0
  5  6  1  0  0  0  0
  5 16  1  0  0  0  0
  6  7  1  0  0  0  0
  7  8  1  0  0  0  0
  7 15  2  0  0  0  0
  8  9  1  0  0  0  0
  9 14  1  0  0  0  0
  9 10  2  0  0  0  0
 10 11  1  0  0  0  0
 11 12  2  0  0  0  0
 12 13  1  0  0  0  0
 13 14  2  0  0  0  0
 16 17  2  0  0  0  0
 16 19  1  0  0  0  0
 17 18  1  0  0  0  0
 19 24  1  0  0  0  0
 19 20  2  0  0  0  0
 20 21  1  0  0  0  0
 21 22  2  0  0  0  0
 22 23  1  0  0  0  0
 22 25  1  0  0  0  0
 23 24  2  0  0  0  0
 25 26  1  0  0  0  0
 26 27  1  0  0  0  0
 26 28  1  0  0  0  0
M  END
> <MW>
382.33

> <EC50>
10

$$$$
MMV669027
 OpenBabel06241423362D

 30 33  0  0  0  0  0  0  0  0999 V2000
    0.7138    4.1723    0.0000 C   0  0  0  0  0  0  0  0  0  0  0  0
   -0.1522    4.6723    0.0000 N   0  0  0  0  0  0  0  0  0  0  0  0
   -1.0182    4.1723    0.0000 C   0  0  0  0  0  0  0  0  0  0  0  0
   -1.0182    3.1723    0.0000 C   0  0  0  0  0  0  0  0  0  0  0  0
   -0.1522    2.6723    0.0000 N   0  0  0  0  0  0  0  0  0  0  0  0
    0.7138    3.1723    0.0000 C   0  0  0  0  0  0  0  0  0  0  0  0
    1.5798    2.6723    0.0000 C   0  0  0  0  0  0  0  0  0  0  0  0
    1.5798    1.6723    0.0000 O   0  0  0  0  0  0  0  0  0  0  0  0
    2.4459    3.1723    0.0000 N   0  0  0  0  0  0  0  0  0  0  0  0
    3.3119    2.6723    0.0000 C   0  0  0  0  0  0  0  0  0  0  0  0
    4.1779    3.1723    0.0000 C   0  0  0  0  0  0  0  0  0  0  0  0
    5.0440    2.6723    0.0000 C   0  0  0  0  0  0  0  0  0  0  0  0
    5.9100    3.1723    0.0000 C   0  0  0  0  0  0  0  0  0  0  0  0
    6.7760    2.6723    0.0000 C   0  0  0  0  0  0  0  0  0  0  0  0
    6.7760    1.6723    0.0000 C   0  0  0  0  0  0  0  0  0  0  0  0
    5.9100    1.1723    0.0000 C   0  0  0  0  0  0  0  0  0  0  0  0
    5.0440    1.6723    0.0000 C   0  0  0  0  0  0  0  0  0  0  0  0
   -0.3601    1.6942    0.0000 C   0  0  0  0  0  0  0  0  0  0  0  0
   -1.3546    1.5897    0.0000 N   0  0  0  0  0  0  0  0  0  0  0  0
   -1.7614    2.5032    0.0000 N   0  0  0  0  0  0  0  0  0  0  0  0
    0.3090    0.9511    0.0000 C   0  0  0  0  0  0  0  0  0  0  0  0
    1.2872    1.1590    0.0000 C   0  0  0  0  0  0  0  0  0  0  0  0
    1.9563    0.4158    0.0000 C   0  0  0  0  0  0  0  0  0  0  0  0
    1.6473   -0.5352    0.0000 C   0  0  0  0  0  0  0  0  0  0  0  0
    0.6691   -0.7431    0.0000 C   0  0  0  0  0  0  0  0  0  0  0  0
    0.0000    0.0000    0.0000 C   0  0  0  0  0  0  0  0  0  0  0  0
    2.3164   -1.2784    0.0000 O   0  0  0  0  0  0  0  0  0  0  0  0
    2.0074   -2.2294    0.0000 C   0  0  0  0  0  0  0  0  0  0  0  0
    1.0292   -2.4373    0.0000 F   0  0  0  0  0  0  0  0  0  0  0  0
    2.6765   -2.9726    0.0000 F   0  0  0  0  0  0  0  0  0  0  0  0
  1  6  2  0  0  0  0
  1  2  1  0  0  0  0
  2  3  2  0  0  0  0
  3  4  1  0  0  0  0
  4 20  2  0  0  0  0
  4  5  1  0  0  0  0
  5  6  1  0  0  0  0
  5 18  1  0  0  0  0
  6  7  1  0  0  0  0
  7  8  2  0  0  0  0
  7  9  1  0  0  0  0
  9 10  1  0  0  0  0
 10 11  1  0  0  0  0
 11 12  1  0  0  0  0
 12 17  1  0  0  0  0
 12 13  2  0  0  0  0
 13 14  1  0  0  0  0
 14 15  2  0  0  0  0
 15 16  1  0  0  0  0
 16 17  2  0  0  0  0
 18 19  2  0  0  0  0
 18 21  1  0  0  0  0
 19 20  1  0  0  0  0
 21 26  1  0  0  0  0
 21 22  2  0  0  0  0
 22 23  1  0  0  0  0
 23 24  2  0  0  0  0
 24 25  1  0  0  0  0
 24 27  1  0  0  0  0
 25 26  2  0  0  0  0
 27 28  1  0  0  0  0
 28 29  1  0  0  0  0
 28 30  1  0  0  0  0
M  END
> <MW>
409.4

> <EC50>
3.17

$$$$
MMV669028
 OpenBabel06241423362D

 29 33  0  0  0  0  0  0  0  0999 V2000
    2.7842    3.8563    0.0000 C   0  0  0  0  0  0  0  0  0  0  0  0
    2.7842    4.8563    0.0000 N   0  0  0  0  0  0  0  0  0  0  0  0
    1.9182    5.3563    0.0000 C   0  0  0  0  0  0  0  0  0  0  0  0
    1.0522    4.8563    0.0000 C   0  0  0  0  0  0  0  0  0  0  0  0
    1.0522    3.8563    0.0000 N   0  0  0  0  0  0  0  0  0  0  0  0
    1.9182    3.3563    0.0000 C   0  0  0  0  0  0  0  0  0  0  0  0
    1.9182    2.3563    0.0000 O   0  0  0  0  0  0  0  0  0  0  0  0
    2.7842    1.8563    0.0000 C   0  0  0  0  0  0  0  0  0  0  0  0
    2.7842    0.8563    0.0000 C   0  0  0  0  0  0  0  0  0  0  0  0
    3.6502    0.3563    0.0000 C   0  0  0  0  0  0  0  0  0  0  0  0
    4.5163    0.8563    0.0000 C   0  0  0  0  0  0  0  0  0  0  0  0
    5.3823    0.3563    0.0000 C   0  0  0  0  0  0  0  0  0  0  0  0
    5.3823   -0.6437    0.0000 C   0  0  0  0  0  0  0  0  0  0  0  0
    4.5163   -1.1437    0.0000 C   0  0  0  0  0  0  0  0  0  0  0  0
    3.6502   -0.6437    0.0000 C   0  0  0  0  0  0  0  0  0  0  0  0
    6.2483   -1.1437    0.0000 F   0  0  0  0  0  0  0  0  0  0  0  0
    6.2483    0.8563    0.0000 F   0  0  0  0  0  0  0  0  0  0  0  0
    0.1011    3.5472    0.0000 C   0  0  0  0  0  0  0  0  0  0  0  0
   -0.4867    4.3563    0.0000 N   0  0  0  0  0  0  0  0  0  0  0  0
    0.1011    5.1653    0.0000 N   0  0  0  0  0  0  0  0  0  0  0  0
   -0.2079    2.5962    0.0000 N   0  0  0  0  0  0  0  0  0  0  0  0
    0.3799    1.7872    0.0000 C   0  0  0  0  0  0  0  0  0  0  0  0
   -0.2079    0.9781    0.0000 C   0  0  0  0  0  0  0  0  0  0  0  0
   -1.1590    1.2872    0.0000 C   0  0  0  0  0  0  0  0  0  0  0  0
   -1.1590    2.2872    0.0000 C   0  0  0  0  0  0  0  0  0  0  0  0
   -1.9021    0.6180    0.0000 C   0  0  0  0  0  0  0  0  0  0  0  0
   -1.6942   -0.3601    0.0000 C   0  0  0  0  0  0  0  0  0  0  0  0
   -0.7431   -0.6691    0.0000 C   0  0  0  0  0  0  0  0  0  0  0  0
    0.0000    0.0000    0.0000 C   0  0  0  0  0  0  0  0  0  0  0  0
  1  6  2  0  0  0  0
  1  2  1  0  0  0  0
  2  3  2  0  0  0  0
  3  4  1  0  0  0  0
  4 20  2  0  0  0  0
  4  5  1  0  0  0  0
  5  6  1  0  0  0  0
  5 18  1  0  0  0  0
  6  7  1  0  0  0  0
  7  8  1  0  0  0  0
  8  9  1  0  0  0  0
  9 10  1  0  0  0  0
 10 15  1  0  0  0  0
 10 11  2  0  0  0  0
 11 12  1  0  0  0  0
 12 13  2  0  0  0  0
 12 17  1  0  0  0  0
 13 14  1  0  0  0  0
 13 16  1  0  0  0  0
 14 15  2  0  0  0  0
 18 19  2  0  0  0  0
 18 21  1  0  0  0  0
 19 20  1  0  0  0  0
 21 25  1  0  0  0  0
 21 22  1  0  0  0  0
 22 23  1  0  0  0  0
 23 29  1  0  0  0  0
 23 24  2  0  0  0  0
 24 25  1  0  0  0  0
 24 26  1  0  0  0  0
 26 27  2  0  0  0  0
 27 28  1  0  0  0  0
 28 29  2  0  0  0  0
M  END
> <MW>
393.4

> <EC50>
0.47

$$$$
MMV669102
 OpenBabel06241423362D

 35 38  0  0  0  0  0  0  0  0999 V2000
    0.7138    4.1723    0.0000 C   0  0  0  0  0  0  0  0  0  0  0  0
   -0.1522    4.6723    0.0000 N   0  0  0  0  0  0  0  0  0  0  0  0
   -1.0182    4.1723    0.0000 C   0  0  0  0  0  0  0  0  0  0  0  0
   -1.0182    3.1723    0.0000 C   0  0  0  0  0  0  0  0  0  0  0  0
   -0.1522    2.6723    0.0000 N   0  0  0  0  0  0  0  0  0  0  0  0
    0.7138    3.1723    0.0000 C   0  0  0  0  0  0  0  0  0  0  0  0
    1.5798    2.6723    0.0000 O   0  0  0  0  0  0  0  0  0  0  0  0
    2.4459    3.1723    0.0000 C   0  0  0  0  0  0  0  0  0  0  0  0
    3.3119    2.6723    0.0000 C   0  0  0  0  0  0  0  0  0  0  0  0
    4.1779    3.1723    0.0000 C   0  0  0  0  0  0  0  0  0  0  0  0
    4.1779    4.1723    0.0000 C   0  0  0  0  0  0  0  0  0  0  0  0
    5.0440    4.6723    0.0000 C   0  0  0  0  0  0  0  0  0  0  0  0
    5.9100    4.1723    0.0000 C   0  0  0  0  0  0  0  0  0  0  0  0
    5.9100    3.1723    0.0000 C   0  0  0  0  0  0  0  0  0  0  0  0
    5.0440    2.6723    0.0000 C   0  0  0  0  0  0  0  0  0  0  0  0
    6.7760    4.6723    0.0000 F   0  0  0  0  0  0  0  0  0  0  0  0
    5.0440    5.6723    0.0000 F   0  0  0  0  0  0  0  0  0  0  0  0
   -0.3601    1.6942    0.0000 C   0  0  0  0  0  0  0  0  0  0  0  0
   -1.3546    1.5897    0.0000 N   0  0  0  0  0  0  0  0  0  0  0  0
   -1.7614    2.5032    0.0000 N   0  0  0  0  0  0  0  0  0  0  0  0
    0.3090    0.9511    0.0000 C   0  0  0  0  0  0  0  0  0  0  0  0
    1.2872    1.1590    0.0000 C   0  0  0  0  0  0  0  0  0  0  0  0
    1.9563    0.4158    0.0000 C   0  0  0  0  0  0  0  0  0  0  0  0
    1.6473   -0.5352    0.0000 C   0  0  0  0  0  0  0  0  0  0  0  0
    0.6691   -0.7431    0.0000 C   0  0  0  0  0  0  0  0  0  0  0  0
    0.0000    0.0000    0.0000 C   0  0  0  0  0  0  0  0  0  0  0  0
    2.3164   -1.2784    0.0000 O   0  0  0  0  0  0  0  0  0  0  0  0
    2.0074   -2.2294    0.0000 C   0  0  0  0  0  0  0  0  0  0  0  0
    1.0292   -2.4373    0.0000 F   0  0  0  0  0  0  0  0  0  0  0  0
    2.6765   -2.9726    0.0000 F   0  0  0  0  0  0  0  0  0  0  0  0
   -1.8843    4.6723    0.0000 N   0  0  0  0  0  0  0  0  0  0  0  0
   -1.8843    5.6723    0.0000 C   0  0  0  0  0  0  0  0  0  0  0  0
   -1.0182    6.1723    0.0000 C   0  0  0  0  0  0  0  0  0  0  0  0
   -2.7503    4.1723    0.0000 C   0  0  0  0  0  0  0  0  0  0  0  0
   -2.7503    3.1723    0.0000 C   0  0  0  0  0  0  0  0  0  0  0  0
  1  6  2  0  0  0  0
  1  2  1  0  0  0  0
  2  3  2  0  0  0  0
  3  4  1  0  0  0  0
  3 31  1  0  0  0  0
  4 20  2  0  0  0  0
  4  5  1  0  0  0  0
  5  6  1  0  0  0  0
  5 18  1  0  0  0  0
  6  7  1  0  0  0  0
  7  8  1  0  0  0  0
  8  9  1  0  0  0  0
  9 10  1  0  0  0  0
 10 15  1  0  0  0  0
 10 11  2  0  0  0  0
 11 12  1  0  0  0  0
 12 13  2  0  0  0  0
 12 17  1  0  0  0  0
 13 14  1  0  0  0  0
 13 16  1  0  0  0  0
 14 15  2  0  0  0  0
 18 19  2  0  0  0  0
 18 21  1  0  0  0  0
 19 20  1  0  0  0  0
 21 26  1  0  0  0  0
 21 22  2  0  0  0  0
 22 23  1  0  0  0  0
 23 24  2  0  0  0  0
 24 25  1  0  0  0  0
 24 27  1  0  0  0  0
 25 26  2  0  0  0  0
 27 28  1  0  0  0  0
 28 29  1  0  0  0  0
 28 30  1  0  0  0  0
 31 32  1  0  0  0  0
 31 34  1  0  0  0  0
 32 33  1  0  0  0  0
 34 35  1  0  0  0  0
M  END
> <MW>
489.47

> <EC50>
6.86

$$$$
MMV669103
 OpenBabel06241423362D

 34 37  0  0  0  0  0  0  0  0999 V2000
   -1.0000   -1.0000    0.0000 N   0  0  0  0  0  0  0  0  0  0  0  0
   -1.5000   -0.1340    0.0000 C   0  0  0  0  0  0  0  0  0  0  0  0
   -1.0000    0.7321    0.0000 C   0  0  0  0  0  0  0  0  0  0  0  0
   -1.5000    1.5981    0.0000 N   0  0  0  0  0  0  0  0  0  0  0  0
   -2.5000    1.5981    0.0000 C   0  0  0  0  0  0  0  0  0  0  0  0
   -3.0000    0.7321    0.0000 C   0  0  0  0  0  0  0  0  0  0  0  0
   -2.5000   -0.1340    0.0000 N   0  0  0  0  0  0  0  0  0  0  0  0
   -3.1691   -0.8771    0.0000 C   0  0  0  0  0  0  0  0  0  0  0  0
   -4.0827   -0.4704    0.0000 N   0  0  0  0  0  0  0  0  0  0  0  0
   -3.9781    0.5241    0.0000 N   0  0  0  0  0  0  0  0  0  0  0  0
   -2.9612   -1.8553    0.0000 C   0  0  0  0  0  0  0  0  0  0  0  0
   -2.0102   -2.1643    0.0000 C   0  0  0  0  0  0  0  0  0  0  0  0
   -1.8023   -3.1424    0.0000 C   0  0  0  0  0  0  0  0  0  0  0  0
   -2.5454   -3.8116    0.0000 C   0  0  0  0  0  0  0  0  0  0  0  0
   -3.4965   -3.5025    0.0000 C   0  0  0  0  0  0  0  0  0  0  0  0
   -3.7044   -2.5244    0.0000 C   0  0  0  0  0  0  0  0  0  0  0  0
   -2.3375   -4.7897    0.0000 O   0  0  0  0  0  0  0  0  0  0  0  0
   -1.3864   -5.0987    0.0000 C   0  0  0  0  0  0  0  0  0  0  0  0
   -1.1785   -6.0769    0.0000 F   0  0  0  0  0  0  0  0  0  0  0  0
   -0.6433   -4.4296    0.0000 F   0  0  0  0  0  0  0  0  0  0  0  0
    0.0000   -1.0000    0.0000 S   0  0  0  0  0  0  0  0  0  0  0  0
    0.0000   -2.0000    0.0000 C   0  0  0  0  0  0  0  0  0  0  0  0
    0.8660   -2.5000    0.0000 C   0  0  0  0  0  0  0  0  0  0  0  0
    1.7321   -2.0000    0.0000 C   0  0  0  0  0  0  0  0  0  0  0  0
    2.5981   -2.5000    0.0000 C   0  0  0  0  0  0  0  0  0  0  0  0
    2.5981   -3.5000    0.0000 C   0  0  0  0  0  0  0  0  0  0  0  0
    1.7321   -4.0000    0.0000 C   0  0  0  0  0  0  0  0  0  0  0  0
    0.8660   -3.5000    0.0000 C   0  0  0  0  0  0  0  0  0  0  0  0
    3.4641   -4.0000    0.0000 C   0  0  0  0  0  0  0  0  0  0  0  0
    4.4641   -4.0000    0.0000 F   0  0  0  0  0  0  0  0  0  0  0  0
    3.9641   -3.1340    0.0000 F   0  0  0  0  0  0  0  0  0  0  0  0
    3.4641   -5.0000    0.0000 F   0  0  0  0  0  0  0  0  0  0  0  0
    1.0000   -1.0000    0.0000 O   0  0  0  0  0  0  0  0  0  0  0  0
    0.0000    0.0000    0.0000 O   0  0  0  0  0  0  0  0  0  0  0  0
  1  2  1  0  0  0  0
  1 21  1  0  0  0  0
  2  7  1  0  0  0  0
  2  3  2  0  0  0  0
  3  4  1  0  0  0  0
  4  5  2  0  0  0  0
  5  6  1  0  0  0  0
  6 10  2  0  0  0  0
  6  7  1  0  0  0  0
  7  8  1  0  0  0  0
  8  9  2  0  0  0  0
  8 11  1  0  0  0  0
  9 10  1  0  0  0  0
 11 16  1  0  0  0  0
 11 12  2  0  0  0  0
 12 13  1  0  0  0  0
 13 14  2  0  0  0  0
 14 15  1  0  0  0  0
 14 17  1  0  0  0  0
 15 16  2  0  0  0  0
 17 18  1  0  0  0  0
 18 19  1  0  0  0  0
 18 20  1  0  0  0  0
 21 22  1  0  0  0  0
 21 33  2  0  0  0  0
 21 34  2  0  0  0  0
 22 23  1  0  0  0  0
 23 28  1  0  0  0  0
 23 24  2  0  0  0  0
 24 25  1  0  0  0  0
 25 26  2  0  0  0  0
 26 27  1  0  0  0  0
 26 29  1  0  0  0  0
 27 28  2  0  0  0  0
 29 30  1  0  0  0  0
 29 31  1  0  0  0  0
 29 32  1  0  0  0  0
M  END
> <MW>
499.42

> <EC50>
10

$$$$
MMV669104
 OpenBabel06241423362D

 32 36  0  0  1  0  0  0  0  0999 V2000
    2.6230   -3.3223    0.0000 C   0  0  0  0  0  0  0  0  0  0  0  0
    3.5741   -3.0133    0.0000 N   0  0  0  0  0  0  0  0  0  0  0  0
    3.7820   -2.0352    0.0000 C   0  0  0  0  0  0  0  0  0  0  0  0
    3.0388   -1.3660    0.0000 C   0  0  0  0  0  0  0  0  0  0  0  0
    2.0878   -1.6750    0.0000 N   0  0  0  0  0  0  0  0  0  0  0  0
    1.8799   -2.6532    0.0000 C   0  0  0  0  0  0  0  0  0  0  0  0
    0.9288   -2.9622    0.0000 C   0  0  0  0  0  0  0  0  0  0  0  0
    0.7209   -3.9404    0.0000 N   0  0  0  0  0  0  0  0  0  0  0  0
   -0.1926   -4.3471    0.0000 C   0  0  3  0  0  0  0  0  0  0  0  0
   -0.0881   -5.3416    0.0000 C   0  0  0  0  0  0  0  0  0  0  0  0
    0.8900   -5.5495    0.0000 C   0  0  0  0  0  0  0  0  0  0  0  0
    1.3900   -4.6835    0.0000 C   0  0  0  0  0  0  0  0  0  0  0  0
   -1.0587   -3.8471    0.0000 C   0  0  0  0  0  0  0  0  0  0  0  0
   -1.0587   -2.8471    0.0000 C   0  0  0  0  0  0  0  0  0  0  0  0
   -1.9247   -2.3471    0.0000 C   0  0  0  0  0  0  0  0  0  0  0  0
   -2.7907   -2.8471    0.0000 C   0  0  0  0  0  0  0  0  0  0  0  0
   -2.7907   -3.8471    0.0000 C   0  0  0  0  0  0  0  0  0  0  0  0
   -1.9247   -4.3471    0.0000 C   0  0  0  0  0  0  0  0  0  0  0  0
    0.1857   -2.2931    0.0000 O   0  0  0  0  0  0  0  0  0  0  0  0
    1.5000   -0.8660    0.0000 C   0  0  0  0  0  0  0  0  0  0  0  0
    2.0878   -0.0570    0.0000 N   0  0  0  0  0  0  0  0  0  0  0  0
    3.0388   -0.3660    0.0000 N   0  0  0  0  0  0  0  0  0  0  0  0
    0.5000   -0.8660    0.0000 C   0  0  0  0  0  0  0  0  0  0  0  0
    0.0000   -1.7321    0.0000 C   0  0  0  0  0  0  0  0  0  0  0  0
   -1.0000   -1.7321    0.0000 C   0  0  0  0  0  0  0  0  0  0  0  0
   -1.5000   -0.8660    0.0000 C   0  0  0  0  0  0  0  0  0  0  0  0
   -1.0000    0.0000    0.0000 C   0  0  0  0  0  0  0  0  0  0  0  0
    0.0000    0.0000    0.0000 C   0  0  0  0  0  0  0  0  0  0  0  0
   -2.5000   -0.8660    0.0000 O   0  0  0  0  0  0  0  0  0  0  0  0
   -3.0000    0.0000    0.0000 C   0  0  0  0  0  0  0  0  0  0  0  0
   -2.5000    0.8660    0.0000 F   0  0  0  0  0  0  0  0  0  0  0  0
   -4.0000    0.0000    0.0000 F   0  0  0  0  0  0  0  0  0  0  0  0
  1  6  2  0  0  0  0
  1  2  1  0  0  0  0
  2  3  2  0  0  0  0
  3  4  1  0  0  0  0
  4 22  2  0  0  0  0
  4  5  1  0  0  0  0
  5  6  1  0  0  0  0
  5 20  1  0  0  0  0
  6  7  1  0  0  0  0
  7  8  1  0  0  0  0
  7 19  2  0  0  0  0
  8 12  1  0  0  0  0
  8  9  1  0  0  0  0
  9 10  1  0  0  0  0
  9 13  1  0  0  0  0
 10 11  1  0  0  0  0
 11 12  1  0  0  0  0
 13 18  1  0  0  0  0
 13 14  2  0  0  0  0
 14 15  1  0  0  0  0
 15 16  2  0  0  0  0
 16 17  1  0  0  0  0
 17 18  2  0  0  0  0
 20 21  2  0  0  0  0
 20 23  1  0  0  0  0
 21 22  1  0  0  0  0
 23 28  1  0  0  0  0
 23 24  2  0  0  0  0
 24 25  1  0  0  0  0
 25 26  2  0  0  0  0
 26 27  1  0  0  0  0
 26 29  1  0  0  0  0
 27 28  2  0  0  0  0
 29 30  1  0  0  0  0
 30 31  1  0  0  0  0
 30 32  1  0  0  0  0
M  END
> <MW>
435.43

> <EC50>
3.56

$$$$
MMV669105
 OpenBabel06241423362D

 31 34  0  0  0  0  0  0  0  0999 V2000
    0.7138    4.1723    0.0000 C    0  0  0  0  0  0  0  0  0  0  0  0
   -0.1522    4.6723    0.0000 N    0  0  0  0  0  0  0  0  0  0  0  0
   -1.0182    4.1723    0.0000 C    0  0  0  0  0  0  0  0  0  0  0  0
   -1.0182    3.1723    0.0000 C    0  0  0  0  0  0  0  0  0  0  0  0
   -0.1522    2.6723    0.0000 N    0  0  0  0  0  0  0  0  0  0  0  0
    0.7138    3.1723    0.0000 C    0  0  0  0  0  0  0  0  0  0  0  0
    1.5798    2.6723    0.0000 C    0  0  0  0  0  0  0  0  0  0  0  0
    1.5798    1.6723    0.0000 O    0  0  0  0  0  0  0  0  0  0  0  0
    2.4459    3.1723    0.0000 N    0  0  0  0  0  0  0  0  0  0  0  0
    3.3119    2.6723    0.0000 C    0  0  0  0  0  0  0  0  0  0  0  0
    4.1779    3.1723    0.0000 C    0  0  0  0  0  0  0  0  0  0  0  0
    4.1779    4.1723    0.0000 C    0  0  0  0  0  0  0  0  0  0  0  0
    5.0440    4.6723    0.0000 C    0  0  0  0  0  0  0  0  0  0  0  0
    5.9100    4.1723    0.0000 C    0  0  0  0  0  0  0  0  0  0  0  0
    5.9100    3.1723    0.0000 C    0  0  0  0  0  0  0  0  0  0  0  0
    5.0440    2.6723    0.0000 C    0  0  0  0  0  0  0  0  0  0  0  0
    5.0440    5.6723    0.0000 Cl   0  0  0  0  0  0  0  0  0  0  0  0
    2.4459    4.1723    0.0000 C    0  0  0  0  0  0  0  0  0  0  0  0
   -0.3601    1.6942    0.0000 C    0  0  0  0  0  0  0  0  0  0  0  0
   -1.3546    1.5897    0.0000 N    0  0  0  0  0  0  0  0  0  0  0  0
   -1.7614    2.5032    0.0000 N    0  0  0  0  0  0  0  0  0  0  0  0
    0.3090    0.9511    0.0000 C    0  0  0  0  0  0  0  0  0  0  0  0
    1.2872    1.1590    0.0000 C    0  0  0  0  0  0  0  0  0  0  0  0
    1.9563    0.4158    0.0000 C    0  0  0  0  0  0  0  0  0  0  0  0
    1.6473   -0.5352    0.0000 C    0  0  0  0  0  0  0  0  0  0  0  0
    0.6691   -0.7431    0.0000 C    0  0  0  0  0  0  0  0  0  0  0  0
    0.0000    0.0000    0.0000 C    0  0  0  0  0  0  0  0  0  0  0  0
    2.3164   -1.2784    0.0000 O    0  0  0  0  0  0  0  0  0  0  0  0
    2.0074   -2.2294    0.0000 C    0  0  0  0  0  0  0  0  0  0  0  0
    1.0292   -2.4373    0.0000 F    0  0  0  0  0  0  0  0  0  0  0  0
    2.6765   -2.9726    0.0000 F    0  0  0  0  0  0  0  0  0  0  0  0
  1  6  2  0  0  0  0
  1  2  1  0  0  0  0
  2  3  2  0  0  0  0
  3  4  1  0  0  0  0
  4 21  2  0  0  0  0
  4  5  1  0  0  0  0
  5  6  1  0  0  0  0
  5 19  1  0  0  0  0
  6  7  1  0  0  0  0
  7  8  2  0  0  0  0
  7  9  1  0  0  0  0
  9 10  1  0  0  0  0
  9 18  1  0  0  0  0
 10 11  1  0  0  0  0
 11 16  1  0  0  0  0
 11 12  2  0  0  0  0
 12 13  1  0  0  0  0
 13 14  2  0  0  0  0
 13 17  1  0  0  0  0
 14 15  1  0  0  0  0
 15 16  2  0  0  0  0
 19 20  2  0  0  0  0
 19 22  1  0  0  0  0
 20 21  1  0  0  0  0
 22 27  1  0  0  0  0
 22 23  2  0  0  0  0
 23 24  1  0  0  0  0
 24 25  2  0  0  0  0
 25 26  1  0  0  0  0
 25 28  1  0  0  0  0
 26 27  2  0  0  0  0
 28 29  1  0  0  0  0
 29 30  1  0  0  0  0
 29 31  1  0  0  0  0
M  END
> <MW>
443.84

> <EC50>
1.06

$$$$
MMV669304
 OpenBabel06241423362D

 28 31  0  0  0  0  0  0  0  0999 V2000
   -3.3119   -1.6723    0.0000 C   0  0  0  0  0  0  0  0  0  0  0  0
   -3.3119   -2.6723    0.0000 C   0  0  0  0  0  0  0  0  0  0  0  0
   -4.1779   -3.1723    0.0000 C   0  0  0  0  0  0  0  0  0  0  0  0
   -5.0440   -2.6723    0.0000 C   0  0  0  0  0  0  0  0  0  0  0  0
   -5.0440   -1.6723    0.0000 C   0  0  0  0  0  0  0  0  0  0  0  0
   -4.1779   -1.1723    0.0000 C   0  0  0  0  0  0  0  0  0  0  0  0
   -2.4459   -1.1723    0.0000 C   0  0  0  0  0  0  0  0  0  0  0  0
   -1.5798   -1.6723    0.0000 C   0  0  0  0  0  0  0  0  0  0  0  0
   -1.5798   -2.6723    0.0000 C   0  0  0  0  0  0  0  0  0  0  0  0
   -0.7138   -3.1723    0.0000 C   0  0  0  0  0  0  0  0  0  0  0  0
   -0.7138   -4.1723    0.0000 C   0  0  0  0  0  0  0  0  0  0  0  0
    0.1522   -4.6723    0.0000 N   0  0  0  0  0  0  0  0  0  0  0  0
    1.0182   -4.1723    0.0000 C   0  0  0  0  0  0  0  0  0  0  0  0
    1.0182   -3.1723    0.0000 C   0  0  0  0  0  0  0  0  0  0  0  0
    0.1522   -2.6723    0.0000 N   0  0  0  0  0  0  0  0  0  0  0  0
    0.3601   -1.6942    0.0000 C   0  0  0  0  0  0  0  0  0  0  0  0
    1.3546   -1.5897    0.0000 N   0  0  0  0  0  0  0  0  0  0  0  0
    1.7614   -2.5032    0.0000 N   0  0  0  0  0  0  0  0  0  0  0  0
   -0.3090   -0.9511    0.0000 C   0  0  0  0  0  0  0  0  0  0  0  0
   -1.2872   -1.1590    0.0000 C   0  0  0  0  0  0  0  0  0  0  0  0
   -1.9563   -0.4158    0.0000 C   0  0  0  0  0  0  0  0  0  0  0  0
   -1.6473    0.5352    0.0000 C   0  0  0  0  0  0  0  0  0  0  0  0
   -0.6691    0.7431    0.0000 C   0  0  0  0  0  0  0  0  0  0  0  0
    0.0000    0.0000    0.0000 C   0  0  0  0  0  0  0  0  0  0  0  0
   -2.3164    1.2784    0.0000 O   0  0  0  0  0  0  0  0  0  0  0  0
   -2.0074    2.2294    0.0000 C   0  0  0  0  0  0  0  0  0  0  0  0
   -1.0292    2.4373    0.0000 F   0  0  0  0  0  0  0  0  0  0  0  0
   -2.6765    2.9726    0.0000 F   0  0  0  0  0  0  0  0  0  0  0  0
  1  6  1  0  0  0  0
  1  2  2  0  0  0  0
  1  7  1  0  0  0  0
  2  3  1  0  0  0  0
  3  4  2  0  0  0  0
  4  5  1  0  0  0  0
  5  6  2  0  0  0  0
  7  8  1  0  0  0  0
  8  9  1  0  0  0  0
  9 10  1  0  0  0  0
 10 15  1  0  0  0  0
 10 11  2  0  0  0  0
 11 12  1  0  0  0  0
 12 13  2  0  0  0  0
 13 14  1  0  0  0  0
 14 18  2  0  0  0  0
 14 15  1  0  0  0  0
 15 16  1  0  0  0  0
 16 17  2  0  0  0  0
 16 19  1  0  0  0  0
 17 18  1  0  0  0  0
 19 24  1  0  0  0  0
 19 20  2  0  0  0  0
 20 21  1  0  0  0  0
 21 22  2  0  0  0  0
 22 23  1  0  0  0  0
 22 25  1  0  0  0  0
 23 24  2  0  0  0  0
 25 26  1  0  0  0  0
 26 27  1  0  0  0  0
 26 28  1  0  0  0  0
M  END
> <MW>
380.4

> <EC50>
0.28

$$$$
MMV669305
 OpenBabel06241423362D

 27 30  0  0  0  0  0  0  0  0999 V2000
   -0.7138   -3.1723    0.0000 C   0  0  0  0  0  0  0  0  0  0  0  0
   -1.5798   -2.6723    0.0000 C   0  0  0  0  0  0  0  0  0  0  0  0
   -2.4459   -3.1723    0.0000 C   0  0  0  0  0  0  0  0  0  0  0  0
   -3.3119   -2.6723    0.0000 N   0  0  0  0  0  0  0  0  0  0  0  0
   -4.1779   -3.1723    0.0000 C   0  0  0  0  0  0  0  0  0  0  0  0
   -5.0440   -2.6723    0.0000 C   0  0  0  0  0  0  0  0  0  0  0  0
   -5.0440   -1.6723    0.0000 O   0  0  0  0  0  0  0  0  0  0  0  0
   -4.1779   -1.1723    0.0000 C   0  0  0  0  0  0  0  0  0  0  0  0
   -3.3119   -1.6723    0.0000 C   0  0  0  0  0  0  0  0  0  0  0  0
   -0.7138   -4.1723    0.0000 C   0  0  0  0  0  0  0  0  0  0  0  0
    0.1522   -4.6723    0.0000 N   0  0  0  0  0  0  0  0  0  0  0  0
    1.0182   -4.1723    0.0000 C   0  0  0  0  0  0  0  0  0  0  0  0
    1.0182   -3.1723    0.0000 C   0  0  0  0  0  0  0  0  0  0  0  0
    0.1522   -2.6723    0.0000 N   0  0  0  0  0  0  0  0  0  0  0  0
    0.3601   -1.6942    0.0000 C   0  0  0  0  0  0  0  0  0  0  0  0
    1.3546   -1.5897    0.0000 N   0  0  0  0  0  0  0  0  0  0  0  0
    1.7614   -2.5032    0.0000 N   0  0  0  0  0  0  0  0  0  0  0  0
   -0.3090   -0.9511    0.0000 C   0  0  0  0  0  0  0  0  0  0  0  0
   -1.2872   -1.1590    0.0000 C   0  0  0  0  0  0  0  0  0  0  0  0
   -1.9563   -0.4158    0.0000 C   0  0  0  0  0  0  0  0  0  0  0  0
   -1.6473    0.5352    0.0000 C   0  0  0  0  0  0  0  0  0  0  0  0
   -0.6691    0.7431    0.0000 C   0  0  0  0  0  0  0  0  0  0  0  0
    0.0000    0.0000    0.0000 C   0  0  0  0  0  0  0  0  0  0  0  0
   -2.3164    1.2784    0.0000 O   0  0  0  0  0  0  0  0  0  0  0  0
   -2.0074    2.2294    0.0000 C   0  0  0  0  0  0  0  0  0  0  0  0
   -1.0292    2.4373    0.0000 F   0  0  0  0  0  0  0  0  0  0  0  0
   -2.6765    2.9726    0.0000 F   0  0  0  0  0  0  0  0  0  0  0  0
  1 14  1  0  0  0  0
  1  2  1  0  0  0  0
  1 10  2  0  0  0  0
  2  3  1  0  0  0  0
  3  4  1  0  0  0  0
  4  9  1  0  0  0  0
  4  5  1  0  0  0  0
  5  6  1  0  0  0  0
  6  7  1  0  0  0  0
  7  8  1  0  0  0  0
  8  9  1  0  0  0  0
 10 11  1  0  0  0  0
 11 12  2  0  0  0  0
 12 13  1  0  0  0  0
 13 17  2  0  0  0  0
 13 14  1  0  0  0  0
 14 15  1  0  0  0  0
 15 16  2  0  0  0  0
 15 18  1  0  0  0  0
 16 17  1  0  0  0  0
 18 23  1  0  0  0  0
 18 19  2  0  0  0  0
 19 20  1  0  0  0  0
 20 21  2  0  0  0  0
 21 22  1  0  0  0  0
 21 24  1  0  0  0  0
 22 23  2  0  0  0  0
 24 25  1  0  0  0  0
 25 26  1  0  0  0  0
 25 27  1  0  0  0  0
M  END
> <MW>
375.38

> <EC50>
10

$$$$
MMV669310
 OpenBabel06241423362D

 28 31  0  0  1  0  0  0  0  0999 V2000
   -3.3119   -1.6723    0.0000 C   0  0  0  0  0  0  0  0  0  0  0  0
   -3.3119   -2.6723    0.0000 C   0  0  0  0  0  0  0  0  0  0  0  0
   -4.1779   -3.1723    0.0000 C   0  0  0  0  0  0  0  0  0  0  0  0
   -5.0440   -2.6723    0.0000 C   0  0  0  0  0  0  0  0  0  0  0  0
   -5.0440   -1.6723    0.0000 C   0  0  0  0  0  0  0  0  0  0  0  0
   -4.1779   -1.1723    0.0000 C   0  0  0  0  0  0  0  0  0  0  0  0
   -2.4459   -1.1723    0.0000 C   0  0  0  0  0  0  0  0  0  0  0  0
   -1.5798   -1.6723    0.0000 C   0  0  0  0  0  0  0  0  0  0  0  0
   -1.5798   -2.6723    0.0000 C   0  0  0  0  0  0  0  0  0  0  0  0
   -0.7138   -3.1723    0.0000 C   0  0  3  0  0  0  0  0  0  0  0  0
   -0.7138   -4.1723    0.0000 C   0  0  0  0  0  0  0  0  0  0  0  0
    0.1522   -4.6723    0.0000 N   0  0  0  0  0  0  0  0  0  0  0  0
    1.0182   -4.1723    0.0000 C   0  0  0  0  0  0  0  0  0  0  0  0
    1.0182   -3.1723    0.0000 C   0  0  0  0  0  0  0  0  0  0  0  0
    0.1522   -2.6723    0.0000 N   0  0  0  0  0  0  0  0  0  0  0  0
    0.3601   -1.6942    0.0000 C   0  0  0  0  0  0  0  0  0  0  0  0
    1.3546   -1.5897    0.0000 N   0  0  0  0  0  0  0  0  0  0  0  0
    1.7614   -2.5032    0.0000 N   0  0  0  0  0  0  0  0  0  0  0  0
   -0.3090   -0.9511    0.0000 C   0  0  0  0  0  0  0  0  0  0  0  0
   -1.2872   -1.1590    0.0000 C   0  0  0  0  0  0  0  0  0  0  0  0
   -1.9563   -0.4158    0.0000 C   0  0  0  0  0  0  0  0  0  0  0  0
   -1.6473    0.5352    0.0000 C   0  0  0  0  0  0  0  0  0  0  0  0
   -0.6691    0.7431    0.0000 C   0  0  0  0  0  0  0  0  0  0  0  0
    0.0000    0.0000    0.0000 C   0  0  0  0  0  0  0  0  0  0  0  0
   -2.3164    1.2784    0.0000 O   0  0  0  0  0  0  0  0  0  0  0  0
   -2.0074    2.2294    0.0000 C   0  0  0  0  0  0  0  0  0  0  0  0
   -1.0292    2.4373    0.0000 F   0  0  0  0  0  0  0  0  0  0  0  0
   -2.6765    2.9726    0.0000 F   0  0  0  0  0  0  0  0  0  0  0  0
  1  6  1  0  0  0  0
  1  2  2  0  0  0  0
  1  7  1  0  0  0  0
  2  3  1  0  0  0  0
  3  4  2  0  0  0  0
  4  5  1  0  0  0  0
  5  6  2  0  0  0  0
  7  8  1  0  0  0  0
  8  9  1  0  0  0  0
  9 10  1  0  0  0  0
 10 15  1  0  0  0  0
 10 11  1  0  0  0  0
 11 12  1  0  0  0  0
 12 13  1  0  0  0  0
 13 14  1  0  0  0  0
 14 18  2  0  0  0  0
 14 15  1  0  0  0  0
 15 16  1  0  0  0  0
 16 17  2  0  0  0  0
 16 19  1  0  0  0  0
 17 18  1  0  0  0  0
 19 24  1  0  0  0  0
 19 20  2  0  0  0  0
 20 21  1  0  0  0  0
 21 22  2  0  0  0  0
 22 23  1  0  0  0  0
 22 25  1  0  0  0  0
 23 24  2  0  0  0  0
 25 26  1  0  0  0  0
 26 27  1  0  0  0  0
 26 28  1  0  0  0  0
M  END
> <MW>
384.43

> <EC50>
8.76

$$$$
MMV669311
 OpenBabel06241423362D

 31 34  0  0  0  0  0  0  0  0999 V2000
    0.7138    4.1723    0.0000 C   0  0  0  0  0  0  0  0  0  0  0  0
   -0.1522    4.6723    0.0000 N   0  0  0  0  0  0  0  0  0  0  0  0
   -1.0182    4.1723    0.0000 C   0  0  0  0  0  0  0  0  0  0  0  0
   -1.0182    3.1723    0.0000 C   0  0  0  0  0  0  0  0  0  0  0  0
   -0.1522    2.6723    0.0000 N   0  0  0  0  0  0  0  0  0  0  0  0
    0.7138    3.1723    0.0000 C   0  0  0  0  0  0  0  0  0  0  0  0
    1.5798    2.6723    0.0000 O   0  0  0  0  0  0  0  0  0  0  0  0
    2.4459    3.1723    0.0000 C   0  0  0  0  0  0  0  0  0  0  0  0
    3.3119    2.6723    0.0000 C   0  0  0  0  0  0  0  0  0  0  0  0
    4.1779    3.1723    0.0000 C   0  0  0  0  0  0  0  0  0  0  0  0
    4.1779    4.1723    0.0000 C   0  0  0  0  0  0  0  0  0  0  0  0
    5.0440    4.6723    0.0000 C   0  0  0  0  0  0  0  0  0  0  0  0
    5.9100    4.1723    0.0000 C   0  0  0  0  0  0  0  0  0  0  0  0
    5.9100    3.1723    0.0000 C   0  0  0  0  0  0  0  0  0  0  0  0
    5.0440    2.6723    0.0000 C   0  0  0  0  0  0  0  0  0  0  0  0
    6.7760    4.6723    0.0000 F   0  0  0  0  0  0  0  0  0  0  0  0
    5.0440    5.6723    0.0000 F   0  0  0  0  0  0  0  0  0  0  0  0
   -0.3601    1.6942    0.0000 C   0  0  0  0  0  0  0  0  0  0  0  0
   -1.3546    1.5897    0.0000 N   0  0  0  0  0  0  0  0  0  0  0  0
   -1.7614    2.5032    0.0000 N   0  0  0  0  0  0  0  0  0  0  0  0
    0.3090    0.9511    0.0000 C   0  0  0  0  0  0  0  0  0  0  0  0
    1.2872    1.1590    0.0000 C   0  0  0  0  0  0  0  0  0  0  0  0
    1.9563    0.4158    0.0000 C   0  0  0  0  0  0  0  0  0  0  0  0
    1.6473   -0.5352    0.0000 C   0  0  0  0  0  0  0  0  0  0  0  0
    0.6691   -0.7431    0.0000 C   0  0  0  0  0  0  0  0  0  0  0  0
    0.0000    0.0000    0.0000 C   0  0  0  0  0  0  0  0  0  0  0  0
    2.3164   -1.2784    0.0000 O   0  0  0  0  0  0  0  0  0  0  0  0
    2.0074   -2.2294    0.0000 C   0  0  0  0  0  0  0  0  0  0  0  0
    1.0292   -2.4373    0.0000 F   0  0  0  0  0  0  0  0  0  0  0  0
    2.6765   -2.9726    0.0000 F   0  0  0  0  0  0  0  0  0  0  0  0
   -1.8843    4.6723    0.0000 N   0  0  0  0  0  0  0  0  0  0  0  0
  1  6  2  0  0  0  0
  1  2  1  0  0  0  0
  2  3  2  0  0  0  0
  3  4  1  0  0  0  0
  3 31  1  0  0  0  0
  4 20  2  0  0  0  0
  4  5  1  0  0  0  0
  5  6  1  0  0  0  0
  5 18  1  0  0  0  0
  6  7  1  0  0  0  0
  7  8  1  0  0  0  0
  8  9  1  0  0  0  0
  9 10  1  0  0  0  0
 10 15  1  0  0  0  0
 10 11  2  0  0  0  0
 11 12  1  0  0  0  0
 12 13  2  0  0  0  0
 12 17  1  0  0  0  0
 13 14  1  0  0  0  0
 13 16  1  0  0  0  0
 14 15  2  0  0  0  0
 18 19  2  0  0  0  0
 18 21  1  0  0  0  0
 19 20  1  0  0  0  0
 21 26  1  0  0  0  0
 21 22  2  0  0  0  0
 22 23  1  0  0  0  0
 23 24  2  0  0  0  0
 24 25  1  0  0  0  0
 24 27  1  0  0  0  0
 25 26  2  0  0  0  0
 27 28  1  0  0  0  0
 28 29  1  0  0  0  0
 28 30  1  0  0  0  0
M  END
> <MW>
433.36

> <EC50>
10

$$$$
MMV669312
 OpenBabel06241423362D

 30 34  0  0  0  0  0  0  0  0999 V2000
    0.7138    4.1723    0.0000 C   0  0  0  0  0  0  0  0  0  0  0  0
   -0.1522    4.6723    0.0000 N   0  0  0  0  0  0  0  0  0  0  0  0
   -1.0182    4.1723    0.0000 C   0  0  0  0  0  0  0  0  0  0  0  0
   -1.0182    3.1723    0.0000 C   0  0  0  0  0  0  0  0  0  0  0  0
   -0.1522    2.6723    0.0000 N   0  0  0  0  0  0  0  0  0  0  0  0
    0.7138    3.1723    0.0000 C   0  0  0  0  0  0  0  0  0  0  0  0
    1.5798    2.6723    0.0000 C   0  0  0  0  0  0  0  0  0  0  0  0
    2.4459    3.1723    0.0000 C   0  0  0  0  0  0  0  0  0  0  0  0
    3.3119    2.6723    0.0000 N   0  0  0  0  0  0  0  0  0  0  0  0
    4.2254    3.0791    0.0000 C   0  0  0  0  0  0  0  0  0  0  0  0
    4.8946    2.3359    0.0000 C   0  0  0  0  0  0  0  0  0  0  0  0
    4.3946    1.4699    0.0000 C   0  0  0  0  0  0  0  0  0  0  0  0
    3.4164    1.6778    0.0000 C   0  0  0  0  0  0  0  0  0  0  0  0
    4.8946    0.6039    0.0000 C   0  0  0  0  0  0  0  0  0  0  0  0
    5.8946    0.6039    0.0000 C   0  0  0  0  0  0  0  0  0  0  0  0
    6.3946    1.4699    0.0000 C   0  0  0  0  0  0  0  0  0  0  0  0
    5.8946    2.3359    0.0000 C   0  0  0  0  0  0  0  0  0  0  0  0
   -0.3601    1.6942    0.0000 C   0  0  0  0  0  0  0  0  0  0  0  0
   -1.3546    1.5897    0.0000 N   0  0  0  0  0  0  0  0  0  0  0  0
   -1.7614    2.5032    0.0000 N   0  0  0  0  0  0  0  0  0  0  0  0
    0.3090    0.9511    0.0000 C   0  0  0  0  0  0  0  0  0  0  0  0
    1.2872    1.1590    0.0000 C   0  0  0  0  0  0  0  0  0  0  0  0
    1.9563    0.4158    0.0000 C   0  0  0  0  0  0  0  0  0  0  0  0
    1.6473   -0.5352    0.0000 C   0  0  0  0  0  0  0  0  0  0  0  0
    0.6691   -0.7431    0.0000 C   0  0  0  0  0  0  0  0  0  0  0  0
    0.0000    0.0000    0.0000 C   0  0  0  0  0  0  0  0  0  0  0  0
    2.3164   -1.2784    0.0000 O   0  0  0  0  0  0  0  0  0  0  0  0
    3.2946   -1.0705    0.0000 C   0  0  0  0  0  0  0  0  0  0  0  0
    3.9637   -1.8136    0.0000 F   0  0  0  0  0  0  0  0  0  0  0  0
    3.6036   -0.1194    0.0000 F   0  0  0  0  0  0  0  0  0  0  0  0
  1  6  2  0  0  0  0
  1  2  1  0  0  0  0
  2  3  2  0  0  0  0
  3  4  1  0  0  0  0
  4 20  2  0  0  0  0
  4  5  1  0  0  0  0
  5  6  1  0  0  0  0
  5 18  1  0  0  0  0
  6  7  1  0  0  0  0
  7  8  1  0  0  0  0
  8  9  1  0  0  0  0
  9 13  1  0  0  0  0
  9 10  1  0  0  0  0
 10 11  1  0  0  0  0
 11 17  1  0  0  0  0
 11 12  2  0  0  0  0
 12 13  1  0  0  0  0
 12 14  1  0  0  0  0
 14 15  2  0  0  0  0
 15 16  1  0  0  0  0
 16 17  2  0  0  0  0
 18 19  2  0  0  0  0
 18 21  1  0  0  0  0
 19 20  1  0  0  0  0
 21 26  1  0  0  0  0
 21 22  2  0  0  0  0
 22 23  1  0  0  0  0
 23 24  2  0  0  0  0
 24 25  1  0  0  0  0
 24 27  1  0  0  0  0
 25 26  2  0  0  0  0
 27 28  1  0  0  0  0
 28 29  1  0  0  0  0
 28 30  1  0  0  0  0
M  END
> <MW>
407.42

> <EC50>
10

$$$$
MMV669353
 OpenBabel06241423362D

 29 33  0  0  0  0  0  0  0  0999 V2000
    1.0000    0.0000    0.0000 N   0  0  0  0  0  0  0  0  0  0  0  0
    0.0000    0.0000    0.0000 C   0  0  0  0  0  0  0  0  0  0  0  0
    0.0000    1.0000    0.0000 C   0  0  0  0  0  0  0  0  0  0  0  0
    1.0000    1.0000    0.0000 C   0  0  0  0  0  0  0  0  0  0  0  0
   -0.7071    1.7071    0.0000 C   0  0  0  0  0  0  0  0  0  0  0  0
   -1.6730    1.4483    0.0000 C   0  0  0  0  0  0  0  0  0  0  0  0
   -2.3801    2.1554    0.0000 C   0  0  0  0  0  0  0  0  0  0  0  0
   -2.1213    3.1213    0.0000 C   0  0  0  0  0  0  0  0  0  0  0  0
   -1.1554    3.3801    0.0000 C   0  0  0  0  0  0  0  0  0  0  0  0
   -0.4483    2.6730    0.0000 C   0  0  0  0  0  0  0  0  0  0  0  0
    1.7071   -0.7071    0.0000 C   0  0  0  0  0  0  0  0  0  0  0  0
    2.6730   -0.4483    0.0000 C   0  0  0  0  0  0  0  0  0  0  0  0
    3.3801   -1.1554    0.0000 N   0  0  0  0  0  0  0  0  0  0  0  0
    3.1213   -2.1213    0.0000 C   0  0  0  0  0  0  0  0  0  0  0  0
    2.1554   -2.3801    0.0000 C   0  0  0  0  0  0  0  0  0  0  0  0
    1.4483   -1.6730    0.0000 N   0  0  0  0  0  0  0  0  0  0  0  0
    0.5573   -2.1270    0.0000 C   0  0  0  0  0  0  0  0  0  0  0  0
    0.7137   -3.1147    0.0000 N   0  0  0  0  0  0  0  0  0  0  0  0
    1.7014   -3.2711    0.0000 N   0  0  0  0  0  0  0  0  0  0  0  0
   -0.3337   -1.6730    0.0000 C   0  0  0  0  0  0  0  0  0  0  0  0
   -1.1724   -2.2177    0.0000 C   0  0  0  0  0  0  0  0  0  0  0  0
   -2.0634   -1.7637    0.0000 C   0  0  0  0  0  0  0  0  0  0  0  0
   -2.1157   -0.7651    0.0000 C   0  0  0  0  0  0  0  0  0  0  0  0
   -1.2771   -0.2204    0.0000 C   0  0  0  0  0  0  0  0  0  0  0  0
   -0.3861   -0.6744    0.0000 C   0  0  0  0  0  0  0  0  0  0  0  0
   -3.0067   -0.3111    0.0000 O   0  0  0  0  0  0  0  0  0  0  0  0
   -3.0591    0.6876    0.0000 C   0  0  0  0  0  0  0  0  0  0  0  0
   -2.2204    1.2322    0.0000 F   0  0  0  0  0  0  0  0  0  0  0  0
   -3.9501    1.1416    0.0000 F   0  0  0  0  0  0  0  0  0  0  0  0
  1  4  1  0  0  0  0
  1  2  1  0  0  0  0
  1 11  1  0  0  0  0
  2  3  1  0  0  0  0
  3  4  1  0  0  0  0
  3  5  1  0  0  0  0
  5 10  1  0  0  0  0
  5  6  2  0  0  0  0
  6  7  1  0  0  0  0
  7  8  2  0  0  0  0
  8  9  1  0  0  0  0
  9 10  2  0  0  0  0
 11 16  1  0  0  0  0
 11 12  2  0  0  0  0
 12 13  1  0  0  0  0
 13 14  2  0  0  0  0
 14 15  1  0  0  0  0
 15 19  2  0  0  0  0
 15 16  1  0  0  0  0
 16 17  1  0  0  0  0
 17 18  2  0  0  0  0
 17 20  1  0  0  0  0
 18 19  1  0  0  0  0
 20 25  1  0  0  0  0
 20 21  2  0  0  0  0
 21 22  1  0  0  0  0
 22 23  2  0  0  0  0
 23 24  1  0  0  0  0
 23 26  1  0  0  0  0
 24 25  2  0  0  0  0
 26 27  1  0  0  0  0
 27 28  1  0  0  0  0
 27 29  1  0  0  0  0
M  END
> <MW>
393.4

> <EC50>
10

$$$$
MMV669360
 OpenBabel06241423362D

 30 33  0  0  0  0  0  0  0  0999 V2000
   -0.7138   -4.1723    0.0000 C   0  0  0  0  0  0  0  0  0  0  0  0
    0.1522   -4.6723    0.0000 N   0  0  0  0  0  0  0  0  0  0  0  0
    1.0182   -4.1723    0.0000 C   0  0  0  0  0  0  0  0  0  0  0  0
    1.0182   -3.1723    0.0000 C   0  0  0  0  0  0  0  0  0  0  0  0
    0.1522   -2.6723    0.0000 N   0  0  0  0  0  0  0  0  0  0  0  0
   -0.7138   -3.1723    0.0000 C   0  0  0  0  0  0  0  0  0  0  0  0
   -1.5798   -2.6723    0.0000 C   0  0  0  0  0  0  0  0  0  0  0  0
   -2.4459   -3.1723    0.0000 O   0  0  0  0  0  0  0  0  0  0  0  0
   -3.3119   -2.6723    0.0000 C   0  0  0  0  0  0  0  0  0  0  0  0
   -4.1779   -3.1723    0.0000 C   0  0  0  0  0  0  0  0  0  0  0  0
   -4.1779   -4.1723    0.0000 C   0  0  0  0  0  0  0  0  0  0  0  0
   -5.0440   -4.6723    0.0000 C   0  0  0  0  0  0  0  0  0  0  0  0
   -5.9100   -4.1723    0.0000 C   0  0  0  0  0  0  0  0  0  0  0  0
   -5.9100   -3.1723    0.0000 C   0  0  0  0  0  0  0  0  0  0  0  0
   -5.0440   -2.6723    0.0000 C   0  0  0  0  0  0  0  0  0  0  0  0
   -6.7760   -4.6723    0.0000 F   0  0  0  0  0  0  0  0  0  0  0  0
   -5.0440   -5.6723    0.0000 F   0  0  0  0  0  0  0  0  0  0  0  0
    0.3601   -1.6942    0.0000 C   0  0  0  0  0  0  0  0  0  0  0  0
    1.3546   -1.5897    0.0000 N   0  0  0  0  0  0  0  0  0  0  0  0
    1.7614   -2.5032    0.0000 N   0  0  0  0  0  0  0  0  0  0  0  0
   -0.3090   -0.9511    0.0000 C   0  0  0  0  0  0  0  0  0  0  0  0
   -1.2872   -1.1590    0.0000 C   0  0  0  0  0  0  0  0  0  0  0  0
   -1.9563   -0.4158    0.0000 C   0  0  0  0  0  0  0  0  0  0  0  0
   -1.6473    0.5352    0.0000 C   0  0  0  0  0  0  0  0  0  0  0  0
   -0.6691    0.7431    0.0000 C   0  0  0  0  0  0  0  0  0  0  0  0
    0.0000    0.0000    0.0000 C   0  0  0  0  0  0  0  0  0  0  0  0
   -2.3164    1.2784    0.0000 O   0  0  0  0  0  0  0  0  0  0  0  0
   -2.0074    2.2294    0.0000 C   0  0  0  0  0  0  0  0  0  0  0  0
   -1.0292    2.4373    0.0000 F   0  0  0  0  0  0  0  0  0  0  0  0
   -2.6765    2.9726    0.0000 F   0  0  0  0  0  0  0  0  0  0  0  0
  1  6  2  0  0  0  0
  1  2  1  0  0  0  0
  2  3  2  0  0  0  0
  3  4  1  0  0  0  0
  4 20  2  0  0  0  0
  4  5  1  0  0  0  0
  5  6  1  0  0  0  0
  5 18  1  0  0  0  0
  6  7  1  0  0  0  0
  7  8  1  0  0  0  0
  8  9  1  0  0  0  0
  9 10  1  0  0  0  0
 10 15  1  0  0  0  0
 10 11  2  0  0  0  0
 11 12  1  0  0  0  0
 12 13  2  0  0  0  0
 12 17  1  0  0  0  0
 13 14  1  0  0  0  0
 13 16  1  0  0  0  0
 14 15  2  0  0  0  0
 18 19  2  0  0  0  0
 18 21  1  0  0  0  0
 19 20  1  0  0  0  0
 21 26  1  0  0  0  0
 21 22  2  0  0  0  0
 22 23  1  0  0  0  0
 23 24  2  0  0  0  0
 24 25  1  0  0  0  0
 24 27  1  0  0  0  0
 25 26  2  0  0  0  0
 27 28  1  0  0  0  0
 28 29  1  0  0  0  0
 28 30  1  0  0  0  0
M  END
> <MW>
418.35

> <EC50>
0.36

$$$$
MMV669541
 OpenBabel06241423362D

 31 34  0  0  0  0  0  0  0  0999 V2000
    0.7138    4.1723    0.0000 C   0  0  0  0  0  0  0  0  0  0  0  0
   -0.1522    4.6723    0.0000 N   0  0  0  0  0  0  0  0  0  0  0  0
   -1.0182    4.1723    0.0000 C   0  0  0  0  0  0  0  0  0  0  0  0
   -1.0182    3.1723    0.0000 C   0  0  0  0  0  0  0  0  0  0  0  0
   -0.1522    2.6723    0.0000 N   0  0  0  0  0  0  0  0  0  0  0  0
    0.7138    3.1723    0.0000 C   0  0  0  0  0  0  0  0  0  0  0  0
    1.5798    2.6723    0.0000 O   0  0  0  0  0  0  0  0  0  0  0  0
    2.4459    3.1723    0.0000 C   0  0  0  0  0  0  0  0  0  0  0  0
    3.3119    2.6723    0.0000 C   0  0  0  0  0  0  0  0  0  0  0  0
    4.1779    3.1723    0.0000 C   0  0  0  0  0  0  0  0  0  0  0  0
    4.1779    4.1723    0.0000 C   0  0  0  0  0  0  0  0  0  0  0  0
    5.0440    4.6723    0.0000 C   0  0  0  0  0  0  0  0  0  0  0  0
    5.9100    4.1723    0.0000 C   0  0  0  0  0  0  0  0  0  0  0  0
    5.9100    3.1723    0.0000 C   0  0  0  0  0  0  0  0  0  0  0  0
    5.0440    2.6723    0.0000 C   0  0  0  0  0  0  0  0  0  0  0  0
    6.7760    4.6723    0.0000 F   0  0  0  0  0  0  0  0  0  0  0  0
    5.0440    5.6723    0.0000 F   0  0  0  0  0  0  0  0  0  0  0  0
   -0.3601    1.6942    0.0000 C   0  0  0  0  0  0  0  0  0  0  0  0
   -1.3546    1.5897    0.0000 N   0  0  0  0  0  0  0  0  0  0  0  0
   -1.7614    2.5032    0.0000 N   0  0  0  0  0  0  0  0  0  0  0  0
    0.3090    0.9511    0.0000 C   0  0  0  0  0  0  0  0  0  0  0  0
    1.2872    1.1590    0.0000 C   0  0  0  0  0  0  0  0  0  0  0  0
    1.9563    0.4158    0.0000 C   0  0  0  0  0  0  0  0  0  0  0  0
    1.6473   -0.5352    0.0000 C   0  0  0  0  0  0  0  0  0  0  0  0
    0.6691   -0.7431    0.0000 C   0  0  0  0  0  0  0  0  0  0  0  0
    0.0000    0.0000    0.0000 C   0  0  0  0  0  0  0  0  0  0  0  0
    2.3164   -1.2784    0.0000 O   0  0  0  0  0  0  0  0  0  0  0  0
    2.0074   -2.2294    0.0000 C   0  0  0  0  0  0  0  0  0  0  0  0
    1.0292   -2.4373    0.0000 F   0  0  0  0  0  0  0  0  0  0  0  0
    2.6765   -2.9726    0.0000 F   0  0  0  0  0  0  0  0  0  0  0  0
   -1.8843    4.6723    0.0000 C   0  0  0  0  0  0  0  0  0  0  0  0
  1  6  2  0  0  0  0
  1  2  1  0  0  0  0
  2  3  2  0  0  0  0
  3  4  1  0  0  0  0
  3 31  1  0  0  0  0
  4 20  2  0  0  0  0
  4  5  1  0  0  0  0
  5  6  1  0  0  0  0
  5 18  1  0  0  0  0
  6  7  1  0  0  0  0
  7  8  1  0  0  0  0
  8  9  1  0  0  0  0
  9 10  1  0  0  0  0
 10 15  1  0  0  0  0
 10 11  2  0  0  0  0
 11 12  1  0  0  0  0
 12 13  2  0  0  0  0
 12 17  1  0  0  0  0
 13 14  1  0  0  0  0
 13 16  1  0  0  0  0
 14 15  2  0  0  0  0
 18 19  2  0  0  0  0
 18 21  1  0  0  0  0
 19 20  1  0  0  0  0
 21 26  1  0  0  0  0
 21 22  2  0  0  0  0
 22 23  1  0  0  0  0
 23 24  2  0  0  0  0
 24 25  1  0  0  0  0
 24 27  1  0  0  0  0
 25 26  2  0  0  0  0
 27 28  1  0  0  0  0
 28 29  1  0  0  0  0
 28 30  1  0  0  0  0
M  END
> <MW>
432.38

> <EC50>
6.92

$$$$
MMV669542
 OpenBabel06241423362D

 29 32  0  0  0  0  0  0  0  0999 V2000
    3.2564   -2.7044    0.0000 C    0  0  0  0  0  0  0  0  0  0  0  0
    4.1225   -2.2044    0.0000 N    0  0  0  0  0  0  0  0  0  0  0  0
    4.1225   -1.2044    0.0000 C    0  0  0  0  0  0  0  0  0  0  0  0
    3.2564   -0.7044    0.0000 C    0  0  0  0  0  0  0  0  0  0  0  0
    2.3904   -1.2044    0.0000 N    0  0  0  0  0  0  0  0  0  0  0  0
    2.3904   -2.2044    0.0000 C    0  0  0  0  0  0  0  0  0  0  0  0
    1.5244   -2.7044    0.0000 C    0  0  0  0  0  0  0  0  0  0  0  0
    0.6584   -2.2044    0.0000 N    0  0  0  0  0  0  0  0  0  0  0  0
   -0.2077   -2.7044    0.0000 C    0  0  0  0  0  0  0  0  0  0  0  0
   -0.2077   -3.7044    0.0000 C    0  0  0  0  0  0  0  0  0  0  0  0
   -1.0737   -4.2044    0.0000 C    0  0  0  0  0  0  0  0  0  0  0  0
   -1.9397   -3.7044    0.0000 C    0  0  0  0  0  0  0  0  0  0  0  0
   -1.9397   -2.7044    0.0000 C    0  0  0  0  0  0  0  0  0  0  0  0
   -1.0737   -2.2044    0.0000 C    0  0  0  0  0  0  0  0  0  0  0  0
   -2.8057   -2.2044    0.0000 Cl   0  0  0  0  0  0  0  0  0  0  0  0
    1.5244   -3.7044    0.0000 O    0  0  0  0  0  0  0  0  0  0  0  0
    1.6473   -0.5352    0.0000 C    0  0  0  0  0  0  0  0  0  0  0  0
    2.0540    0.3783    0.0000 N    0  0  0  0  0  0  0  0  0  0  0  0
    3.0485    0.2738    0.0000 N    0  0  0  0  0  0  0  0  0  0  0  0
    0.6691   -0.7431    0.0000 C    0  0  0  0  0  0  0  0  0  0  0  0
    0.3601   -1.6942    0.0000 C    0  0  0  0  0  0  0  0  0  0  0  0
   -0.6180   -1.9021    0.0000 C    0  0  0  0  0  0  0  0  0  0  0  0
   -1.2872   -1.1590    0.0000 C    0  0  0  0  0  0  0  0  0  0  0  0
   -0.9781   -0.2079    0.0000 C    0  0  0  0  0  0  0  0  0  0  0  0
    0.0000    0.0000    0.0000 C    0  0  0  0  0  0  0  0  0  0  0  0
   -2.2653   -1.3669    0.0000 O    0  0  0  0  0  0  0  0  0  0  0  0
   -2.9344   -0.6237    0.0000 C    0  0  0  0  0  0  0  0  0  0  0  0
   -2.6254    0.3273    0.0000 F    0  0  0  0  0  0  0  0  0  0  0  0
   -3.9126   -0.8316    0.0000 F    0  0  0  0  0  0  0  0  0  0  0  0
  1  6  2  0  0  0  0
  1  2  1  0  0  0  0
  2  3  2  0  0  0  0
  3  4  1  0  0  0  0
  4 19  2  0  0  0  0
  4  5  1  0  0  0  0
  5  6  1  0  0  0  0
  5 17  1  0  0  0  0
  6  7  1  0  0  0  0
  7  8  1  0  0  0  0
  7 16  2  0  0  0  0
  8  9  1  0  0  0  0
  9 14  1  0  0  0  0
  9 10  2  0  0  0  0
 10 11  1  0  0  0  0
 11 12  2  0  0  0  0
 12 13  1  0  0  0  0
 13 14  2  0  0  0  0
 13 15  1  0  0  0  0
 17 18  2  0  0  0  0
 17 20  1  0  0  0  0
 18 19  1  0  0  0  0
 20 25  1  0  0  0  0
 20 21  2  0  0  0  0
 21 22  1  0  0  0  0
 22 23  2  0  0  0  0
 23 24  1  0  0  0  0
 23 26  1  0  0  0  0
 24 25  2  0  0  0  0
 26 27  1  0  0  0  0
 27 28  1  0  0  0  0
 27 29  1  0  0  0  0
M  END
> <MW>
415.79

> <EC50>
0.18

$$$$
MMV669543
 OpenBabel06241423362D

 31 34  0  0  0  0  0  0  0  0999 V2000
   -3.3119    2.6723    0.0000 C   0  0  0  0  0  0  0  0  0  0  0  0
   -3.3119    1.6723    0.0000 C   0  0  0  0  0  0  0  0  0  0  0  0
   -4.1779    1.1723    0.0000 C   0  0  0  0  0  0  0  0  0  0  0  0
   -5.0440    1.6723    0.0000 C   0  0  0  0  0  0  0  0  0  0  0  0
   -5.0440    2.6723    0.0000 C   0  0  0  0  0  0  0  0  0  0  0  0
   -4.1779    3.1723    0.0000 C   0  0  0  0  0  0  0  0  0  0  0  0
   -4.1779    4.1723    0.0000 F   0  0  0  0  0  0  0  0  0  0  0  0
   -5.9100    3.1723    0.0000 F   0  0  0  0  0  0  0  0  0  0  0  0
   -2.4459    1.1723    0.0000 C   0  0  0  0  0  0  0  0  0  0  0  0
   -1.5798    1.6723    0.0000 N   0  0  0  0  0  0  0  0  0  0  0  0
   -1.5798    2.6723    0.0000 C   0  0  0  0  0  0  0  0  0  0  0  0
   -0.7138    3.1723    0.0000 C   0  0  0  0  0  0  0  0  0  0  0  0
   -0.7138    4.1723    0.0000 C   0  0  0  0  0  0  0  0  0  0  0  0
    0.1522    4.6723    0.0000 N   0  0  0  0  0  0  0  0  0  0  0  0
    1.0182    4.1723    0.0000 C   0  0  0  0  0  0  0  0  0  0  0  0
    1.0182    3.1723    0.0000 C   0  0  0  0  0  0  0  0  0  0  0  0
    0.1522    2.6723    0.0000 N   0  0  0  0  0  0  0  0  0  0  0  0
    0.3601    1.6942    0.0000 C   0  0  0  0  0  0  0  0  0  0  0  0
    1.3546    1.5897    0.0000 N   0  0  0  0  0  0  0  0  0  0  0  0
    1.7614    2.5032    0.0000 N   0  0  0  0  0  0  0  0  0  0  0  0
   -0.3090    0.9511    0.0000 C   0  0  0  0  0  0  0  0  0  0  0  0
   -1.2872    1.1590    0.0000 C   0  0  0  0  0  0  0  0  0  0  0  0
   -1.9563    0.4158    0.0000 C   0  0  0  0  0  0  0  0  0  0  0  0
   -1.6473   -0.5352    0.0000 C   0  0  0  0  0  0  0  0  0  0  0  0
   -0.6691   -0.7431    0.0000 C   0  0  0  0  0  0  0  0  0  0  0  0
    0.0000    0.0000    0.0000 C   0  0  0  0  0  0  0  0  0  0  0  0
   -2.3164   -1.2784    0.0000 O   0  0  0  0  0  0  0  0  0  0  0  0
   -2.0074   -2.2294    0.0000 C   0  0  0  0  0  0  0  0  0  0  0  0
   -1.0292   -2.4373    0.0000 F   0  0  0  0  0  0  0  0  0  0  0  0
   -2.6765   -2.9726    0.0000 F   0  0  0  0  0  0  0  0  0  0  0  0
   -2.4459    3.1723    0.0000 O   0  0  0  0  0  0  0  0  0  0  0  0
  1  6  1  0  0  0  0
  1  2  2  0  0  0  0
  2  3  1  0  0  0  0
  2  9  1  0  0  0  0
  3  4  2  0  0  0  0
  4  5  1  0  0  0  0
  5  6  2  0  0  0  0
  5  8  1  0  0  0  0
  6  7  1  0  0  0  0
  9 10  1  0  0  0  0
 10 11  1  0  0  0  0
 11 12  1  0  0  0  0
 11 31  2  0  0  0  0
 12 17  1  0  0  0  0
 12 13  2  0  0  0  0
 13 14  1  0  0  0  0
 14 15  2  0  0  0  0
 15 16  1  0  0  0  0
 16 20  2  0  0  0  0
 16 17  1  0  0  0  0
 17 18  1  0  0  0  0
 18 19  2  0  0  0  0
 18 21  1  0  0  0  0
 19 20  1  0  0  0  0
 21 26  1  0  0  0  0
 21 22  2  0  0  0  0
 22 23  1  0  0  0  0
 23 24  2  0  0  0  0
 24 25  1  0  0  0  0
 24 27  1  0  0  0  0
 25 26  2  0  0  0  0
 27 28  1  0  0  0  0
 28 29  1  0  0  0  0
 28 30  1  0  0  0  0
M  END
> <MW>
431.35

> <EC50>
0.28

$$$$
MMV669544
 OpenBabel06241423362D

 30 33  0  0  0  0  0  0  0  0999 V2000
    0.0000    1.0000    0.0000 C    0  0  0  0  0  0  0  0  0  0  0  0
   -0.8660    1.5000    0.0000 C    0  0  0  0  0  0  0  0  0  0  0  0
   -1.7321    1.0000    0.0000 N    0  0  0  0  0  0  0  0  0  0  0  0
   -1.7321    0.0000    0.0000 C    0  0  0  0  0  0  0  0  0  0  0  0
   -2.5981   -0.5000    0.0000 C    0  0  0  0  0  0  0  0  0  0  0  0
   -3.4641    0.0000    0.0000 C    0  0  0  0  0  0  0  0  0  0  0  0
   -4.3301   -0.5000    0.0000 N    0  0  0  0  0  0  0  0  0  0  0  0
   -4.3301   -1.5000    0.0000 C    0  0  0  0  0  0  0  0  0  0  0  0
   -3.4641   -2.0000    0.0000 C    0  0  0  0  0  0  0  0  0  0  0  0
   -2.5981   -1.5000    0.0000 N    0  0  0  0  0  0  0  0  0  0  0  0
   -1.8549   -2.1691    0.0000 C    0  0  0  0  0  0  0  0  0  0  0  0
   -2.2617   -3.0827    0.0000 N    0  0  0  0  0  0  0  0  0  0  0  0
   -3.2562   -2.9781    0.0000 N    0  0  0  0  0  0  0  0  0  0  0  0
   -0.8768   -1.9612    0.0000 C    0  0  0  0  0  0  0  0  0  0  0  0
   -0.5678   -1.0102    0.0000 C    0  0  0  0  0  0  0  0  0  0  0  0
    0.4104   -0.8023    0.0000 C    0  0  0  0  0  0  0  0  0  0  0  0
    1.0795   -1.5454    0.0000 C    0  0  0  0  0  0  0  0  0  0  0  0
    0.7705   -2.4965    0.0000 C    0  0  0  0  0  0  0  0  0  0  0  0
   -0.2077   -2.7044    0.0000 C    0  0  0  0  0  0  0  0  0  0  0  0
    2.0577   -1.3375    0.0000 O    0  0  0  0  0  0  0  0  0  0  0  0
    2.7268   -2.0806    0.0000 C    0  0  0  0  0  0  0  0  0  0  0  0
    2.4178   -3.0317    0.0000 F    0  0  0  0  0  0  0  0  0  0  0  0
    3.7049   -1.8727    0.0000 F    0  0  0  0  0  0  0  0  0  0  0  0
   -0.8660    2.5000    0.0000 O    0  0  0  0  0  0  0  0  0  0  0  0
    0.8660    1.5000    0.0000 C    0  0  0  0  0  0  0  0  0  0  0  0
    1.7321    1.0000    0.0000 C    0  0  0  0  0  0  0  0  0  0  0  0
    1.7321    0.0000    0.0000 C    0  0  0  0  0  0  0  0  0  0  0  0
    0.8660   -0.5000    0.0000 C    0  0  0  0  0  0  0  0  0  0  0  0
    0.0000    0.0000    0.0000 C    0  0  0  0  0  0  0  0  0  0  0  0
    2.5981    1.5000    0.0000 Cl   0  0  0  0  0  0  0  0  0  0  0  0
  1 29  1  0  0  0  0
  1  2  1  0  0  0  0
  1 25  2  0  0  0  0
  2  3  1  0  0  0  0
  2 24  2  0  0  0  0
  3  4  1  0  0  0  0
  4  5  1  0  0  0  0
  5 10  1  0  0  0  0
  5  6  2  0  0  0  0
  6  7  1  0  0  0  0
  7  8  2  0  0  0  0
  8  9  1  0  0  0  0
  9 13  2  0  0  0  0
  9 10  1  0  0  0  0
 10 11  1  0  0  0  0
 11 12  2  0  0  0  0
 11 14  1  0  0  0  0
 12 13  1  0  0  0  0
 14 19  1  0  0  0  0
 14 15  2  0  0  0  0
 15 16  1  0  0  0  0
 16 17  2  0  0  0  0
 17 18  1  0  0  0  0
 17 20  1  0  0  0  0
 18 19  2  0  0  0  0
 20 21  1  0  0  0  0
 21 22  1  0  0  0  0
 21 23  1  0  0  0  0
 25 26  1  0  0  0  0
 26 27  2  0  0  0  0
 26 30  1  0  0  0  0
 27 28  1  0  0  0  0
 28 29  2  0  0  0  0
M  END
> <MW>
429.81

> <EC50>
10

$$$$
MMV669784
 OpenBabel06241423362D

 27 30  0  0  0  0  0  0  0  0999 V2000
    3.9703    1.4680    0.0000 C    0  0  0  0  0  0  0  0  0  0  0  0
    3.9703    2.4680    0.0000 N    0  0  0  0  0  0  0  0  0  0  0  0
    3.1042    2.9680    0.0000 C    0  0  0  0  0  0  0  0  0  0  0  0
    2.2382    2.4680    0.0000 C    0  0  0  0  0  0  0  0  0  0  0  0
    2.2382    1.4680    0.0000 N    0  0  0  0  0  0  0  0  0  0  0  0
    3.1042    0.9680    0.0000 C    0  0  0  0  0  0  0  0  0  0  0  0
    3.1042   -0.0320    0.0000 O    0  0  0  0  0  0  0  0  0  0  0  0
    3.9703   -0.5320    0.0000 C    0  0  0  0  0  0  0  0  0  0  0  0
    4.8363   -0.0320    0.0000 C    0  0  0  0  0  0  0  0  0  0  0  0
    5.7023   -0.5320    0.0000 C    0  0  0  0  0  0  0  0  0  0  0  0
    5.7023   -1.5320    0.0000 C    0  0  0  0  0  0  0  0  0  0  0  0
    4.8363   -2.0320    0.0000 C    0  0  0  0  0  0  0  0  0  0  0  0
    3.9703   -1.5320    0.0000 C    0  0  0  0  0  0  0  0  0  0  0  0
    6.5683   -2.0320    0.0000 Cl   0  0  0  0  0  0  0  0  0  0  0  0
    1.2872    1.1590    0.0000 C    0  0  0  0  0  0  0  0  0  0  0  0
    0.6994    1.9680    0.0000 N    0  0  0  0  0  0  0  0  0  0  0  0
    1.2872    2.7770    0.0000 N    0  0  0  0  0  0  0  0  0  0  0  0
    0.9781    0.2079    0.0000 C    0  0  0  0  0  0  0  0  0  0  0  0
    1.6473   -0.5352    0.0000 C    0  0  0  0  0  0  0  0  0  0  0  0
    1.3383   -1.4863    0.0000 C    0  0  0  0  0  0  0  0  0  0  0  0
    0.3601   -1.6942    0.0000 C    0  0  0  0  0  0  0  0  0  0  0  0
   -0.3090   -0.9511    0.0000 C    0  0  0  0  0  0  0  0  0  0  0  0
    0.0000    0.0000    0.0000 C    0  0  0  0  0  0  0  0  0  0  0  0
    0.0511   -2.6453    0.0000 O    0  0  0  0  0  0  0  0  0  0  0  0
   -0.9271   -2.8532    0.0000 C    0  0  0  0  0  0  0  0  0  0  0  0
   -1.5962   -2.1100    0.0000 F    0  0  0  0  0  0  0  0  0  0  0  0
   -1.2361   -3.8042    0.0000 F    0  0  0  0  0  0  0  0  0  0  0  0
  1  6  2  0  0  0  0
  1  2  1  0  0  0  0
  2  3  2  0  0  0  0
  3  4  1  0  0  0  0
  4 17  2  0  0  0  0
  4  5  1  0  0  0  0
  5  6  1  0  0  0  0
  5 15  1  0  0  0  0
  6  7  1  0  0  0  0
  7  8  1  0  0  0  0
  8 13  1  0  0  0  0
  8  9  2  0  0  0  0
  9 10  1  0  0  0  0
 10 11  2  0  0  0  0
 11 12  1  0  0  0  0
 11 14  1  0  0  0  0
 12 13  2  0  0  0  0
 15 16  2  0  0  0  0
 15 18  1  0  0  0  0
 16 17  1  0  0  0  0
 18 23  1  0  0  0  0
 18 19  2  0  0  0  0
 19 20  1  0  0  0  0
 20 21  2  0  0  0  0
 21 22  1  0  0  0  0
 21 24  1  0  0  0  0
 22 23  2  0  0  0  0
 24 25  1  0  0  0  0
 25 26  1  0  0  0  0
 25 27  1  0  0  0  0
M  END
> <MW>
388.76

> <EC50>
2.96

$$$$
MMV669844
 OpenBabel06241423362D

 31 34  0  0  1  0  0  0  0  0999 V2000
    0.8660   -1.5000    0.0000 C   0  0  1  0  0  0  0  0  0  0  0  0
    1.3660   -0.6340    0.0000 H   0  0  0  0  0  0  0  0  0  0  0  0
    1.7321   -2.0000    0.0000 C   0  0  0  0  0  0  0  0  0  0  0  0
    2.5981   -1.5000    0.0000 O   0  0  0  0  0  0  0  0  0  0  0  0
    3.4641   -2.0000    0.0000 C   0  0  0  0  0  0  0  0  0  0  0  0
    3.4641   -3.0000    0.0000 C   0  0  0  0  0  0  0  0  0  0  0  0
    4.3301   -3.5000    0.0000 N   0  0  0  0  0  0  0  0  0  0  0  0
    5.1962   -3.0000    0.0000 C   0  0  0  0  0  0  0  0  0  0  0  0
    5.1962   -2.0000    0.0000 C   0  0  0  0  0  0  0  0  0  0  0  0
    4.3301   -1.5000    0.0000 N   0  0  0  0  0  0  0  0  0  0  0  0
    4.5380   -0.5219    0.0000 C   0  0  0  0  0  0  0  0  0  0  0  0
    5.5326   -0.4173    0.0000 N   0  0  0  0  0  0  0  0  0  0  0  0
    5.9393   -1.3309    0.0000 N   0  0  0  0  0  0  0  0  0  0  0  0
    3.8689    0.2213    0.0000 C   0  0  0  0  0  0  0  0  0  0  0  0
    2.8908    0.0134    0.0000 C   0  0  0  0  0  0  0  0  0  0  0  0
    2.2216    0.7565    0.0000 C   0  0  0  0  0  0  0  0  0  0  0  0
    2.5306    1.7076    0.0000 C   0  0  0  0  0  0  0  0  0  0  0  0
    3.5088    1.9155    0.0000 C   0  0  0  0  0  0  0  0  0  0  0  0
    4.1779    1.1723    0.0000 C   0  0  0  0  0  0  0  0  0  0  0  0
    1.8615    2.4507    0.0000 C   0  0  0  0  0  0  0  0  0  0  0  0
    1.1924    3.1939    0.0000 N   0  0  0  0  0  0  0  0  0  0  0  0
    0.0000   -1.0000    0.0000 C   0  0  0  0  0  0  0  0  0  0  0  0
   -0.8660   -1.5000    0.0000 C   0  0  0  0  0  0  0  0  0  0  0  0
   -1.7321   -1.0000    0.0000 C   0  0  0  0  0  0  0  0  0  0  0  0
   -1.7321    0.0000    0.0000 C   0  0  0  0  0  0  0  0  0  0  0  0
   -0.8660    0.5000    0.0000 C   0  0  0  0  0  0  0  0  0  0  0  0
    0.0000    0.0000    0.0000 C   0  0  0  0  0  0  0  0  0  0  0  0
   -2.5981    0.5000    0.0000 F   0  0  0  0  0  0  0  0  0  0  0  0
   -2.5981   -1.5000    0.0000 F   0  0  0  0  0  0  0  0  0  0  0  0
    0.3660   -2.3660    0.0000 O   0  0  0  0  0  0  0  0  0  0  0  0
   -0.6340   -2.3660    0.0000 C   0  0  0  0  0  0  0  0  0  0  0  0
  1  2  1  1  0  0  0
  1  3  1  0  0  0  0
  1 22  1  0  0  0  0
  1 30  1  0  0  0  0
  3  4  1  0  0  0  0
  4  5  1  0  0  0  0
  5 10  1  0  0  0  0
  5  6  2  0  0  0  0
  6  7  1  0  0  0  0
  7  8  2  0  0  0  0
  8  9  1  0  0  0  0
  9 13  2  0  0  0  0
  9 10  1  0  0  0  0
 10 11  1  0  0  0  0
 11 12  2  0  0  0  0
 11 14  1  0  0  0  0
 12 13  1  0  0  0  0
 14 19  1  0  0  0  0
 14 15  2  0  0  0  0
 15 16  1  0  0  0  0
 16 17  2  0  0  0  0
 17 18  1  0  0  0  0
 17 20  1  0  0  0  0
 18 19  2  0  0  0  0
 20 21  3  0  0  0  0
 22 27  1  0  0  0  0
 22 23  2  0  0  0  0
 23 24  1  0  0  0  0
 24 25  2  0  0  0  0
 24 29  1  0  0  0  0
 25 26  1  0  0  0  0
 25 28  1  0  0  0  0
 26 27  2  0  0  0  0
 30 31  1  0  0  0  0
M  END
> <MW>
407.38

> <EC50>
0.04

$$$$
MMV669846
 OpenBabel06241423362D

 27 30  0  0  0  0  0  0  0  0999 V2000
   -0.7138   -4.1723    0.0000 C    0  0  0  0  0  0  0  0  0  0  0  0
    0.1522   -4.6723    0.0000 N    0  0  0  0  0  0  0  0  0  0  0  0
    1.0182   -4.1723    0.0000 C    0  0  0  0  0  0  0  0  0  0  0  0
    1.0182   -3.1723    0.0000 C    0  0  0  0  0  0  0  0  0  0  0  0
    0.1522   -2.6723    0.0000 N    0  0  0  0  0  0  0  0  0  0  0  0
   -0.7138   -3.1723    0.0000 C    0  0  0  0  0  0  0  0  0  0  0  0
   -1.5798   -2.6723    0.0000 O    0  0  0  0  0  0  0  0  0  0  0  0
   -2.4459   -3.1723    0.0000 C    0  0  0  0  0  0  0  0  0  0  0  0
   -3.3119   -2.6723    0.0000 C    0  0  0  0  0  0  0  0  0  0  0  0
   -4.1779   -3.1723    0.0000 C    0  0  0  0  0  0  0  0  0  0  0  0
   -4.1779   -4.1723    0.0000 C    0  0  0  0  0  0  0  0  0  0  0  0
   -5.0440   -4.6723    0.0000 C    0  0  0  0  0  0  0  0  0  0  0  0
   -5.9100   -4.1723    0.0000 C    0  0  0  0  0  0  0  0  0  0  0  0
   -5.9100   -3.1723    0.0000 C    0  0  0  0  0  0  0  0  0  0  0  0
   -5.0440   -2.6723    0.0000 C    0  0  0  0  0  0  0  0  0  0  0  0
   -6.7760   -4.6723    0.0000 F    0  0  0  0  0  0  0  0  0  0  0  0
   -5.0440   -5.6723    0.0000 F    0  0  0  0  0  0  0  0  0  0  0  0
    0.3601   -1.6942    0.0000 C    0  0  0  0  0  0  0  0  0  0  0  0
    1.3546   -1.5897    0.0000 C    0  0  0  0  0  0  0  0  0  0  0  0
    1.7614   -2.5032    0.0000 N    0  0  0  0  0  0  0  0  0  0  0  0
   -0.3090   -0.9511    0.0000 C    0  0  0  0  0  0  0  0  0  0  0  0
   -1.2872   -1.1590    0.0000 C    0  0  0  0  0  0  0  0  0  0  0  0
   -1.9563   -0.4158    0.0000 C    0  0  0  0  0  0  0  0  0  0  0  0
   -1.6473    0.5352    0.0000 C    0  0  0  0  0  0  0  0  0  0  0  0
   -0.6691    0.7431    0.0000 C    0  0  0  0  0  0  0  0  0  0  0  0
    0.0000    0.0000    0.0000 C    0  0  0  0  0  0  0  0  0  0  0  0
   -2.3164    1.2784    0.0000 Cl   0  0  0  0  0  0  0  0  0  0  0  0
  1  6  2  0  0  0  0
  1  2  1  0  0  0  0
  2  3  2  0  0  0  0
  3  4  1  0  0  0  0
  4 20  2  0  0  0  0
  4  5  1  0  0  0  0
  5  6  1  0  0  0  0
  5 18  1  0  0  0  0
  6  7  1  0  0  0  0
  7  8  1  0  0  0  0
  8  9  1  0  0  0  0
  9 10  1  0  0  0  0
 10 15  1  0  0  0  0
 10 11  2  0  0  0  0
 11 12  1  0  0  0  0
 12 13  2  0  0  0  0
 12 17  1  0  0  0  0
 13 14  1  0  0  0  0
 13 16  1  0  0  0  0
 14 15  2  0  0  0  0
 18 19  2  0  0  0  0
 18 21  1  0  0  0  0
 19 20  1  0  0  0  0
 21 26  1  0  0  0  0
 21 22  2  0  0  0  0
 22 23  1  0  0  0  0
 23 24  2  0  0  0  0
 24 25  1  0  0  0  0
 24 27  1  0  0  0  0
 25 26  2  0  0  0  0
M  END
> <MW>
385.8

> <EC50>
0.11

$$$$
MMV669848
 OpenBabel06241423362D

 29 33  0  0  0  0  0  0  0  0999 V2000
   -2.3230    2.0032    0.0000 C   0  0  0  0  0  0  0  0  0  0  0  0
   -2.3230    3.0032    0.0000 N   0  0  0  0  0  0  0  0  0  0  0  0
   -1.4570    3.5032    0.0000 C   0  0  0  0  0  0  0  0  0  0  0  0
   -0.5909    3.0032    0.0000 C   0  0  0  0  0  0  0  0  0  0  0  0
    0.3601    3.3122    0.0000 N   0  0  0  0  0  0  0  0  0  0  0  0
    0.9479    2.5032    0.0000 N   0  0  0  0  0  0  0  0  0  0  0  0
    0.3601    1.6942    0.0000 C   0  0  0  0  0  0  0  0  0  0  0  0
   -0.5909    2.0032    0.0000 N   0  0  0  0  0  0  0  0  0  0  0  0
   -1.4570    1.5032    0.0000 C   0  0  0  0  0  0  0  0  0  0  0  0
   -1.4570    0.5032    0.0000 C   0  0  0  0  0  0  0  0  0  0  0  0
   -2.3230    0.0032    0.0000 N   0  0  0  0  0  0  0  0  0  0  0  0
   -3.2365    0.4100    0.0000 C   0  0  0  0  0  0  0  0  0  0  0  0
   -3.9057   -0.3332    0.0000 C   0  0  0  0  0  0  0  0  0  0  0  0
   -3.4057   -1.1992    0.0000 C   0  0  0  0  0  0  0  0  0  0  0  0
   -2.4275   -0.9913    0.0000 C   0  0  0  0  0  0  0  0  0  0  0  0
   -3.9057   -2.0652    0.0000 C   0  0  0  0  0  0  0  0  0  0  0  0
   -4.9057   -2.0652    0.0000 C   0  0  0  0  0  0  0  0  0  0  0  0
   -5.4057   -1.1992    0.0000 C   0  0  0  0  0  0  0  0  0  0  0  0
   -4.9057   -0.3332    0.0000 C   0  0  0  0  0  0  0  0  0  0  0  0
    0.6691    0.7431    0.0000 C   0  0  0  0  0  0  0  0  0  0  0  0
    1.6473    0.5352    0.0000 C   0  0  0  0  0  0  0  0  0  0  0  0
    1.9563   -0.4158    0.0000 C   0  0  0  0  0  0  0  0  0  0  0  0
    1.2872   -1.1590    0.0000 C   0  0  0  0  0  0  0  0  0  0  0  0
    0.3090   -0.9511    0.0000 C   0  0  0  0  0  0  0  0  0  0  0  0
    0.0000    0.0000    0.0000 C   0  0  0  0  0  0  0  0  0  0  0  0
    1.5962   -2.1100    0.0000 O   0  0  0  0  0  0  0  0  0  0  0  0
    2.5743   -2.3179    0.0000 C   0  0  0  0  0  0  0  0  0  0  0  0
    2.8833   -3.2690    0.0000 F   0  0  0  0  0  0  0  0  0  0  0  0
    3.2435   -1.5748    0.0000 F   0  0  0  0  0  0  0  0  0  0  0  0
  1  9  2  0  0  0  0
  1  2  1  0  0  0  0
  2  3  2  0  0  0  0
  3  4  1  0  0  0  0
  4  8  1  0  0  0  0
  4  5  2  0  0  0  0
  5  6  1  0  0  0  0
  6  7  2  0  0  0  0
  7  8  1  0  0  0  0
  7 20  1  0  0  0  0
  8  9  1  0  0  0  0
  9 10  1  0  0  0  0
 10 11  1  0  0  0  0
 11 15  1  0  0  0  0
 11 12  1  0  0  0  0
 12 13  1  0  0  0  0
 13 19  1  0  0  0  0
 13 14  2  0  0  0  0
 14 15  1  0  0  0  0
 14 16  1  0  0  0  0
 16 17  2  0  0  0  0
 17 18  1  0  0  0  0
 18 19  2  0  0  0  0
 20 25  1  0  0  0  0
 20 21  2  0  0  0  0
 21 22  1  0  0  0  0
 22 23  2  0  0  0  0
 23 24  1  0  0  0  0
 23 26  1  0  0  0  0
 24 25  2  0  0  0  0
 26 27  1  0  0  0  0
 27 28  1  0  0  0  0
 27 29  1  0  0  0  0
M  END
> <MW>
393.4

> <EC50>
0.11

$$$$
MMV669849
 OpenBabel06241423362D

 29 32  0  0  0  0  0  0  0  0999 V2000
    2.3230   -2.0032    0.0000 C   0  0  0  0  0  0  0  0  0  0  0  0
    2.3230   -3.0032    0.0000 N   0  0  0  0  0  0  0  0  0  0  0  0
    1.4570   -3.5032    0.0000 C   0  0  0  0  0  0  0  0  0  0  0  0
    0.5909   -3.0032    0.0000 C   0  0  0  0  0  0  0  0  0  0  0  0
   -0.3601   -3.3122    0.0000 N   0  0  0  0  0  0  0  0  0  0  0  0
   -0.9479   -2.5032    0.0000 N   0  0  0  0  0  0  0  0  0  0  0  0
   -0.3601   -1.6942    0.0000 C   0  0  0  0  0  0  0  0  0  0  0  0
    0.5909   -2.0032    0.0000 N   0  0  0  0  0  0  0  0  0  0  0  0
    1.4570   -1.5032    0.0000 C   0  0  0  0  0  0  0  0  0  0  0  0
    1.4570   -0.5032    0.0000 C   0  0  0  0  0  0  0  0  0  0  0  0
    2.3230   -0.0032    0.0000 N   0  0  0  0  0  0  0  0  0  0  0  0
    3.1890   -0.5032    0.0000 C   0  0  0  0  0  0  0  0  0  0  0  0
    4.0550   -0.0032    0.0000 C   0  0  0  0  0  0  0  0  0  0  0  0
    4.9211   -0.5032    0.0000 C   0  0  0  0  0  0  0  0  0  0  0  0
    4.9211   -1.5032    0.0000 C   0  0  0  0  0  0  0  0  0  0  0  0
    4.0550   -2.0032    0.0000 C   0  0  0  0  0  0  0  0  0  0  0  0
    3.1890   -1.5032    0.0000 C   0  0  0  0  0  0  0  0  0  0  0  0
    5.7871   -2.0032    0.0000 F   0  0  0  0  0  0  0  0  0  0  0  0
    0.5909   -0.0032    0.0000 O   0  0  0  0  0  0  0  0  0  0  0  0
   -0.6691   -0.7431    0.0000 C   0  0  0  0  0  0  0  0  0  0  0  0
   -1.6473   -0.5352    0.0000 C   0  0  0  0  0  0  0  0  0  0  0  0
   -1.9563    0.4158    0.0000 C   0  0  0  0  0  0  0  0  0  0  0  0
   -1.2872    1.1590    0.0000 C   0  0  0  0  0  0  0  0  0  0  0  0
   -0.3090    0.9511    0.0000 C   0  0  0  0  0  0  0  0  0  0  0  0
    0.0000    0.0000    0.0000 C   0  0  0  0  0  0  0  0  0  0  0  0
   -1.5962    2.1100    0.0000 O   0  0  0  0  0  0  0  0  0  0  0  0
   -2.5743    2.3179    0.0000 C   0  0  0  0  0  0  0  0  0  0  0  0
   -2.8833    3.2690    0.0000 F   0  0  0  0  0  0  0  0  0  0  0  0
   -3.2435    1.5748    0.0000 F   0  0  0  0  0  0  0  0  0  0  0  0
  1  9  2  0  0  0  0
  1  2  1  0  0  0  0
  2  3  2  0  0  0  0
  3  4  1  0  0  0  0
  4  8  1  0  0  0  0
  4  5  2  0  0  0  0
  5  6  1  0  0  0  0
  6  7  2  0  0  0  0
  7  8  1  0  0  0  0
  7 20  1  0  0  0  0
  8  9  1  0  0  0  0
  9 10  1  0  0  0  0
 10 11  1  0  0  0  0
 10 19  2  0  0  0  0
 11 12  1  0  0  0  0
 12 17  1  0  0  0  0
 12 13  2  0  0  0  0
 13 14  1  0  0  0  0
 14 15  2  0  0  0  0
 15 16  1  0  0  0  0
 15 18  1  0  0  0  0
 16 17  2  0  0  0  0
 20 25  1  0  0  0  0
 20 21  2  0  0  0  0
 21 22  1  0  0  0  0
 22 23  2  0  0  0  0
 23 24  1  0  0  0  0
 23 26  1  0  0  0  0
 24 25  2  0  0  0  0
 26 27  1  0  0  0  0
 27 28  1  0  0  0  0
 27 29  1  0  0  0  0
M  END
> <MW>
399.33

> <EC50>
3.74

$$$$
MMV669850
 OpenBabel06241423362D

 30 33  0  0  0  0  0  0  0  0999 V2000
    2.3230   -2.0032    0.0000 C   0  0  0  0  0  0  0  0  0  0  0  0
    2.3230   -3.0032    0.0000 N   0  0  0  0  0  0  0  0  0  0  0  0
    1.4570   -3.5032    0.0000 C   0  0  0  0  0  0  0  0  0  0  0  0
    0.5909   -3.0032    0.0000 C   0  0  0  0  0  0  0  0  0  0  0  0
   -0.3601   -3.3122    0.0000 N   0  0  0  0  0  0  0  0  0  0  0  0
   -0.9479   -2.5032    0.0000 N   0  0  0  0  0  0  0  0  0  0  0  0
   -0.3601   -1.6942    0.0000 C   0  0  0  0  0  0  0  0  0  0  0  0
    0.5909   -2.0032    0.0000 N   0  0  0  0  0  0  0  0  0  0  0  0
    1.4570   -1.5032    0.0000 C   0  0  0  0  0  0  0  0  0  0  0  0
    1.4570   -0.5032    0.0000 C   0  0  0  0  0  0  0  0  0  0  0  0
    2.3230   -0.0032    0.0000 N   0  0  0  0  0  0  0  0  0  0  0  0
    3.1890   -0.5032    0.0000 C   0  0  0  0  0  0  0  0  0  0  0  0
    4.0550   -0.0032    0.0000 C   0  0  0  0  0  0  0  0  0  0  0  0
    4.9211   -0.5032    0.0000 C   0  0  0  0  0  0  0  0  0  0  0  0
    4.9211   -1.5032    0.0000 C   0  0  0  0  0  0  0  0  0  0  0  0
    4.0550   -2.0032    0.0000 C   0  0  0  0  0  0  0  0  0  0  0  0
    3.1890   -1.5032    0.0000 C   0  0  0  0  0  0  0  0  0  0  0  0
    4.0550   -3.0032    0.0000 F   0  0  0  0  0  0  0  0  0  0  0  0
    5.7871   -2.0032    0.0000 F   0  0  0  0  0  0  0  0  0  0  0  0
    0.5909   -0.0032    0.0000 O   0  0  0  0  0  0  0  0  0  0  0  0
   -0.6691   -0.7431    0.0000 C   0  0  0  0  0  0  0  0  0  0  0  0
   -1.6473   -0.5352    0.0000 C   0  0  0  0  0  0  0  0  0  0  0  0
   -1.9563    0.4158    0.0000 C   0  0  0  0  0  0  0  0  0  0  0  0
   -1.2872    1.1590    0.0000 C   0  0  0  0  0  0  0  0  0  0  0  0
   -0.3090    0.9511    0.0000 C   0  0  0  0  0  0  0  0  0  0  0  0
    0.0000    0.0000    0.0000 C   0  0  0  0  0  0  0  0  0  0  0  0
   -1.5962    2.1100    0.0000 O   0  0  0  0  0  0  0  0  0  0  0  0
   -2.5743    2.3179    0.0000 C   0  0  0  0  0  0  0  0  0  0  0  0
   -2.8833    3.2690    0.0000 F   0  0  0  0  0  0  0  0  0  0  0  0
   -3.2435    1.5748    0.0000 F   0  0  0  0  0  0  0  0  0  0  0  0
  1  9  2  0  0  0  0
  1  2  1  0  0  0  0
  2  3  2  0  0  0  0
  3  4  1  0  0  0  0
  4  8  1  0  0  0  0
  4  5  2  0  0  0  0
  5  6  1  0  0  0  0
  6  7  2  0  0  0  0
  7  8  1  0  0  0  0
  7 21  1  0  0  0  0
  8  9  1  0  0  0  0
  9 10  1  0  0  0  0
 10 11  1  0  0  0  0
 10 20  2  0  0  0  0
 11 12  1  0  0  0  0
 12 17  1  0  0  0  0
 12 13  2  0  0  0  0
 13 14  1  0  0  0  0
 14 15  2  0  0  0  0
 15 16  1  0  0  0  0
 15 19  1  0  0  0  0
 16 17  2  0  0  0  0
 16 18  1  0  0  0  0
 21 26  1  0  0  0  0
 21 22  2  0  0  0  0
 22 23  1  0  0  0  0
 23 24  2  0  0  0  0
 24 25  1  0  0  0  0
 24 27  1  0  0  0  0
 25 26  2  0  0  0  0
 27 28  1  0  0  0  0
 28 29  1  0  0  0  0
 28 30  1  0  0  0  0
M  END
> <MW>
417.32

> <EC50>
0.65

$$$$
MMV670243
 OpenBabel06241423362D

 30 33  0  0  0  0  0  0  0  0999 V2000
   -0.7138   -4.1723    0.0000 C   0  0  0  0  0  0  0  0  0  0  0  0
    0.1522   -4.6723    0.0000 N   0  0  0  0  0  0  0  0  0  0  0  0
    1.0182   -4.1723    0.0000 C   0  0  0  0  0  0  0  0  0  0  0  0
    1.0182   -3.1723    0.0000 C   0  0  0  0  0  0  0  0  0  0  0  0
    0.1522   -2.6723    0.0000 N   0  0  0  0  0  0  0  0  0  0  0  0
   -0.7138   -3.1723    0.0000 C   0  0  0  0  0  0  0  0  0  0  0  0
   -1.5798   -2.6723    0.0000 C   0  0  0  0  0  0  0  0  0  0  0  0
   -2.4459   -3.1723    0.0000 C   0  0  0  0  0  0  0  0  0  0  0  0
   -3.3119   -2.6723    0.0000 C   0  0  0  0  0  0  0  0  0  0  0  0
   -4.1779   -3.1723    0.0000 C   0  0  0  0  0  0  0  0  0  0  0  0
   -4.1779   -4.1723    0.0000 C   0  0  0  0  0  0  0  0  0  0  0  0
   -5.0440   -4.6723    0.0000 C   0  0  0  0  0  0  0  0  0  0  0  0
   -5.9100   -4.1723    0.0000 C   0  0  0  0  0  0  0  0  0  0  0  0
   -5.9100   -3.1723    0.0000 C   0  0  0  0  0  0  0  0  0  0  0  0
   -5.0440   -2.6723    0.0000 C   0  0  0  0  0  0  0  0  0  0  0  0
   -6.7760   -4.6723    0.0000 F   0  0  0  0  0  0  0  0  0  0  0  0
   -5.0440   -5.6723    0.0000 F   0  0  0  0  0  0  0  0  0  0  0  0
    0.3601   -1.6942    0.0000 C   0  0  0  0  0  0  0  0  0  0  0  0
    1.3546   -1.5897    0.0000 N   0  0  0  0  0  0  0  0  0  0  0  0
    1.7614   -2.5032    0.0000 N   0  0  0  0  0  0  0  0  0  0  0  0
   -0.3090   -0.9511    0.0000 C   0  0  0  0  0  0  0  0  0  0  0  0
   -1.2872   -1.1590    0.0000 C   0  0  0  0  0  0  0  0  0  0  0  0
   -1.9563   -0.4158    0.0000 C   0  0  0  0  0  0  0  0  0  0  0  0
   -1.6473    0.5352    0.0000 C   0  0  0  0  0  0  0  0  0  0  0  0
   -0.6691    0.7431    0.0000 C   0  0  0  0  0  0  0  0  0  0  0  0
    0.0000    0.0000    0.0000 C   0  0  0  0  0  0  0  0  0  0  0  0
   -2.3164    1.2784    0.0000 O   0  0  0  0  0  0  0  0  0  0  0  0
   -2.0074    2.2294    0.0000 C   0  0  0  0  0  0  0  0  0  0  0  0
   -1.0292    2.4373    0.0000 F   0  0  0  0  0  0  0  0  0  0  0  0
   -2.6765    2.9726    0.0000 F   0  0  0  0  0  0  0  0  0  0  0  0
  1  6  2  0  0  0  0
  1  2  1  0  0  0  0
  2  3  2  0  0  0  0
  3  4  1  0  0  0  0
  4 20  2  0  0  0  0
  4  5  1  0  0  0  0
  5  6  1  0  0  0  0
  5 18  1  0  0  0  0
  6  7  1  0  0  0  0
  7  8  1  0  0  0  0
  8  9  1  0  0  0  0
  9 10  1  0  0  0  0
 10 15  1  0  0  0  0
 10 11  2  0  0  0  0
 11 12  1  0  0  0  0
 12 13  2  0  0  0  0
 12 17  1  0  0  0  0
 13 14  1  0  0  0  0
 13 16  1  0  0  0  0
 14 15  2  0  0  0  0
 18 19  2  0  0  0  0
 18 21  1  0  0  0  0
 19 20  1  0  0  0  0
 21 26  1  0  0  0  0
 21 22  2  0  0  0  0
 22 23  1  0  0  0  0
 23 24  2  0  0  0  0
 24 25  1  0  0  0  0
 24 27  1  0  0  0  0
 25 26  2  0  0  0  0
 27 28  1  0  0  0  0
 28 29  1  0  0  0  0
 28 30  1  0  0  0  0
M  END
> <MW>
416.38

> <EC50>
0.32

$$$$
MMV670246
 OpenBabel06241423362D

 29 32  0  0  0  0  0  0  0  0999 V2000
    2.3230   -2.0032    0.0000 C    0  0  0  0  0  0  0  0  0  0  0  0
    2.3230   -3.0032    0.0000 N    0  0  0  0  0  0  0  0  0  0  0  0
    1.4570   -3.5032    0.0000 C    0  0  0  0  0  0  0  0  0  0  0  0
    0.5909   -3.0032    0.0000 C    0  0  0  0  0  0  0  0  0  0  0  0
   -0.3601   -3.3122    0.0000 N    0  0  0  0  0  0  0  0  0  0  0  0
   -0.9479   -2.5032    0.0000 N    0  0  0  0  0  0  0  0  0  0  0  0
   -0.3601   -1.6942    0.0000 C    0  0  0  0  0  0  0  0  0  0  0  0
    0.5909   -2.0032    0.0000 N    0  0  0  0  0  0  0  0  0  0  0  0
    1.4570   -1.5032    0.0000 C    0  0  0  0  0  0  0  0  0  0  0  0
    1.4570   -0.5032    0.0000 C    0  0  0  0  0  0  0  0  0  0  0  0
    2.3230   -0.0032    0.0000 N    0  0  0  0  0  0  0  0  0  0  0  0
    3.1890   -0.5032    0.0000 C    0  0  0  0  0  0  0  0  0  0  0  0
    4.0550   -0.0032    0.0000 C    0  0  0  0  0  0  0  0  0  0  0  0
    4.9211   -0.5032    0.0000 C    0  0  0  0  0  0  0  0  0  0  0  0
    4.9211   -1.5032    0.0000 C    0  0  0  0  0  0  0  0  0  0  0  0
    4.0550   -2.0032    0.0000 C    0  0  0  0  0  0  0  0  0  0  0  0
    3.1890   -1.5032    0.0000 C    0  0  0  0  0  0  0  0  0  0  0  0
    5.7871   -2.0032    0.0000 Cl   0  0  0  0  0  0  0  0  0  0  0  0
    0.5909   -0.0032    0.0000 O    0  0  0  0  0  0  0  0  0  0  0  0
   -0.6691   -0.7431    0.0000 C    0  0  0  0  0  0  0  0  0  0  0  0
   -1.6473   -0.5352    0.0000 C    0  0  0  0  0  0  0  0  0  0  0  0
   -1.9563    0.4158    0.0000 C    0  0  0  0  0  0  0  0  0  0  0  0
   -1.2872    1.1590    0.0000 C    0  0  0  0  0  0  0  0  0  0  0  0
   -0.3090    0.9511    0.0000 C    0  0  0  0  0  0  0  0  0  0  0  0
    0.0000    0.0000    0.0000 C    0  0  0  0  0  0  0  0  0  0  0  0
   -1.5962    2.1100    0.0000 O    0  0  0  0  0  0  0  0  0  0  0  0
   -2.5743    2.3179    0.0000 C    0  0  0  0  0  0  0  0  0  0  0  0
   -2.8833    3.2690    0.0000 F    0  0  0  0  0  0  0  0  0  0  0  0
   -3.2435    1.5748    0.0000 F    0  0  0  0  0  0  0  0  0  0  0  0
  1  9  2  0  0  0  0
  1  2  1  0  0  0  0
  2  3  2  0  0  0  0
  3  4  1  0  0  0  0
  4  8  1  0  0  0  0
  4  5  2  0  0  0  0
  5  6  1  0  0  0  0
  6  7  2  0  0  0  0
  7  8  1  0  0  0  0
  7 20  1  0  0  0  0
  8  9  1  0  0  0  0
  9 10  1  0  0  0  0
 10 11  1  0  0  0  0
 10 19  2  0  0  0  0
 11 12  1  0  0  0  0
 12 17  1  0  0  0  0
 12 13  2  0  0  0  0
 13 14  1  0  0  0  0
 14 15  2  0  0  0  0
 15 16  1  0  0  0  0
 15 18  1  0  0  0  0
 16 17  2  0  0  0  0
 20 25  1  0  0  0  0
 20 21  2  0  0  0  0
 21 22  1  0  0  0  0
 22 23  2  0  0  0  0
 23 24  1  0  0  0  0
 23 26  1  0  0  0  0
 24 25  2  0  0  0  0
 26 27  1  0  0  0  0
 27 28  1  0  0  0  0
 27 29  1  0  0  0  0
M  END
> <MW>
415.79

> <EC50>
5

$$$$
MMV670249
 OpenBabel06241423362D

 30 34  0  0  0  0  0  0  0  0999 V2000
   -1.9910   -4.1348    0.0000 C   0  0  0  0  0  0  0  0  0  0  0  0
   -2.8570   -4.6348    0.0000 N   0  0  0  0  0  0  0  0  0  0  0  0
   -3.7230   -4.1348    0.0000 C   0  0  0  0  0  0  0  0  0  0  0  0
   -3.7230   -3.1348    0.0000 C   0  0  0  0  0  0  0  0  0  0  0  0
   -4.4662   -2.4657    0.0000 N   0  0  0  0  0  0  0  0  0  0  0  0
   -4.0594   -1.5522    0.0000 N   0  0  0  0  0  0  0  0  0  0  0  0
   -3.0649   -1.6567    0.0000 C   0  0  0  0  0  0  0  0  0  0  0  0
   -2.8570   -2.6348    0.0000 N   0  0  0  0  0  0  0  0  0  0  0  0
   -1.9910   -3.1348    0.0000 C   0  0  0  0  0  0  0  0  0  0  0  0
   -1.1249   -2.6348    0.0000 O   0  0  0  0  0  0  0  0  0  0  0  0
   -0.2589   -3.1348    0.0000 C   0  0  0  0  0  0  0  0  0  0  0  0
    0.6071   -2.6348    0.0000 C   0  0  0  0  0  0  0  0  0  0  0  0
    1.4731   -3.1348    0.0000 C   0  0  0  0  0  0  0  0  0  0  0  0
    1.4731   -4.1348    0.0000 C   0  0  0  0  0  0  0  0  0  0  0  0
    2.3392   -4.6348    0.0000 C   0  0  0  0  0  0  0  0  0  0  0  0
    3.2052   -4.1348    0.0000 C   0  0  0  0  0  0  0  0  0  0  0  0
    3.2052   -3.1348    0.0000 C   0  0  0  0  0  0  0  0  0  0  0  0
    2.3392   -2.6348    0.0000 C   0  0  0  0  0  0  0  0  0  0  0  0
    4.0712   -2.6348    0.0000 F   0  0  0  0  0  0  0  0  0  0  0  0
    4.0712   -4.6348    0.0000 F   0  0  0  0  0  0  0  0  0  0  0  0
   -2.3958   -0.9135    0.0000 N   0  0  0  0  0  0  0  0  0  0  0  0
   -2.6037    0.0646    0.0000 C   0  0  0  0  0  0  0  0  0  0  0  0
   -1.7377    0.5646    0.0000 C   0  0  0  0  0  0  0  0  0  0  0  0
   -0.9945   -0.1045    0.0000 C   0  0  0  0  0  0  0  0  0  0  0  0
   -1.4013   -1.0181    0.0000 C   0  0  0  0  0  0  0  0  0  0  0  0
   -0.8135   -1.8271    0.0000 C   0  0  0  0  0  0  0  0  0  0  0  0
    0.1810   -1.7226    0.0000 C   0  0  0  0  0  0  0  0  0  0  0  0
    0.5878   -0.8090    0.0000 C   0  0  0  0  0  0  0  0  0  0  0  0
    0.0000    0.0000    0.0000 C   0  0  0  0  0  0  0  0  0  0  0  0
    1.5823   -0.7045    0.0000 F   0  0  0  0  0  0  0  0  0  0  0  0
  1  9  2  0  0  0  0
  1  2  1  0  0  0  0
  2  3  2  0  0  0  0
  3  4  1  0  0  0  0
  4  8  1  0  0  0  0
  4  5  2  0  0  0  0
  5  6  1  0  0  0  0
  6  7  2  0  0  0  0
  7  8  1  0  0  0  0
  7 21  1  0  0  0  0
  8  9  1  0  0  0  0
  9 10  1  0  0  0  0
 10 11  1  0  0  0  0
 11 12  1  0  0  0  0
 12 13  1  0  0  0  0
 13 18  1  0  0  0  0
 13 14  2  0  0  0  0
 14 15  1  0  0  0  0
 15 16  2  0  0  0  0
 16 17  1  0  0  0  0
 16 20  1  0  0  0  0
 17 18  2  0  0  0  0
 17 19  1  0  0  0  0
 21 25  1  0  0  0  0
 21 22  1  0  0  0  0
 22 23  1  0  0  0  0
 23 24  1  0  0  0  0
 24 29  1  0  0  0  0
 24 25  2  0  0  0  0
 25 26  1  0  0  0  0
 26 27  2  0  0  0  0
 27 28  1  0  0  0  0
 28 29  2  0  0  0  0
 28 30  1  0  0  0  0
M  END
> <MW>
411.39

> <EC50>
2.05

$$$$
MMV670250
 OpenBabel06241423362D

 27 30  0  0  0  0  0  0  0  0999 V2000
   -0.5733   -3.0134    0.0000 C    0  0  0  0  0  0  0  0  0  0  0  0
   -1.4394   -3.5134    0.0000 N    0  0  0  0  0  0  0  0  0  0  0  0
   -2.3054   -3.0134    0.0000 C    0  0  0  0  0  0  0  0  0  0  0  0
   -2.3054   -2.0134    0.0000 C    0  0  0  0  0  0  0  0  0  0  0  0
   -3.0485   -1.3443    0.0000 C    0  0  0  0  0  0  0  0  0  0  0  0
   -2.6418   -0.4307    0.0000 N    0  0  0  0  0  0  0  0  0  0  0  0
   -1.6473   -0.5352    0.0000 C    0  0  0  0  0  0  0  0  0  0  0  0
   -1.4394   -1.5134    0.0000 N    0  0  0  0  0  0  0  0  0  0  0  0
   -0.5733   -2.0134    0.0000 C    0  0  0  0  0  0  0  0  0  0  0  0
    0.2927   -1.5134    0.0000 O    0  0  0  0  0  0  0  0  0  0  0  0
    1.1587   -2.0134    0.0000 C    0  0  0  0  0  0  0  0  0  0  0  0
    2.0247   -1.5134    0.0000 C    0  0  0  0  0  0  0  0  0  0  0  0
    2.8908   -2.0134    0.0000 C    0  0  0  0  0  0  0  0  0  0  0  0
    2.8908   -3.0134    0.0000 C    0  0  0  0  0  0  0  0  0  0  0  0
    3.7568   -3.5134    0.0000 C    0  0  0  0  0  0  0  0  0  0  0  0
    4.6228   -3.0134    0.0000 C    0  0  0  0  0  0  0  0  0  0  0  0
    4.6228   -2.0134    0.0000 C    0  0  0  0  0  0  0  0  0  0  0  0
    3.7568   -1.5134    0.0000 C    0  0  0  0  0  0  0  0  0  0  0  0
    5.4888   -3.5134    0.0000 F    0  0  0  0  0  0  0  0  0  0  0  0
    3.7568   -4.5134    0.0000 F    0  0  0  0  0  0  0  0  0  0  0  0
   -0.9781    0.2079    0.0000 C    0  0  0  0  0  0  0  0  0  0  0  0
   -1.2872    1.1590    0.0000 C    0  0  0  0  0  0  0  0  0  0  0  0
   -0.6180    1.9021    0.0000 C    0  0  0  0  0  0  0  0  0  0  0  0
    0.3601    1.6942    0.0000 C    0  0  0  0  0  0  0  0  0  0  0  0
    0.6691    0.7431    0.0000 C    0  0  0  0  0  0  0  0  0  0  0  0
    0.0000    0.0000    0.0000 C    0  0  0  0  0  0  0  0  0  0  0  0
    1.0292    2.4373    0.0000 Cl   0  0  0  0  0  0  0  0  0  0  0  0
  1  9  2  0  0  0  0
  1  2  1  0  0  0  0
  2  3  2  0  0  0  0
  3  4  1  0  0  0  0
  4  8  1  0  0  0  0
  4  5  2  0  0  0  0
  5  6  1  0  0  0  0
  6  7  2  0  0  0  0
  7  8  1  0  0  0  0
  7 21  1  0  0  0  0
  8  9  1  0  0  0  0
  9 10  1  0  0  0  0
 10 11  1  0  0  0  0
 11 12  1  0  0  0  0
 12 13  1  0  0  0  0
 13 18  1  0  0  0  0
 13 14  2  0  0  0  0
 14 15  1  0  0  0  0
 15 16  2  0  0  0  0
 15 20  1  0  0  0  0
 16 17  1  0  0  0  0
 16 19  1  0  0  0  0
 17 18  2  0  0  0  0
 21 26  1  0  0  0  0
 21 22  2  0  0  0  0
 22 23  1  0  0  0  0
 23 24  2  0  0  0  0
 24 25  1  0  0  0  0
 24 27  1  0  0  0  0
 25 26  2  0  0  0  0
M  END
> <MW>
385.8

> <EC50>
0.83

$$$$
MMV670437
 OpenBabel06241423362D

 34 37  0  0  1  0  0  0  0  0999 V2000
   -0.8660    1.5000    0.0000 C   0  0  1  0  0  0  0  0  0  0  0  0
   -1.3660    0.6340    0.0000 H   0  0  0  0  0  0  0  0  0  0  0  0
   -1.7321    2.0000    0.0000 C   0  0  0  0  0  0  0  0  0  0  0  0
   -2.5981    1.5000    0.0000 O   0  0  0  0  0  0  0  0  0  0  0  0
   -3.4641    2.0000    0.0000 C   0  0  0  0  0  0  0  0  0  0  0  0
   -3.4641    3.0000    0.0000 C   0  0  0  0  0  0  0  0  0  0  0  0
   -4.3301    3.5000    0.0000 N   0  0  0  0  0  0  0  0  0  0  0  0
   -5.1962    3.0000    0.0000 C   0  0  0  0  0  0  0  0  0  0  0  0
   -5.1962    2.0000    0.0000 C   0  0  0  0  0  0  0  0  0  0  0  0
   -4.3301    1.5000    0.0000 N   0  0  0  0  0  0  0  0  0  0  0  0
   -4.5380    0.5219    0.0000 C   0  0  0  0  0  0  0  0  0  0  0  0
   -5.5326    0.4173    0.0000 N   0  0  0  0  0  0  0  0  0  0  0  0
   -5.9393    1.3309    0.0000 N   0  0  0  0  0  0  0  0  0  0  0  0
   -3.8689   -0.2213    0.0000 C   0  0  0  0  0  0  0  0  0  0  0  0
   -2.8908   -0.0134    0.0000 C   0  0  0  0  0  0  0  0  0  0  0  0
   -2.2216   -0.7565    0.0000 C   0  0  0  0  0  0  0  0  0  0  0  0
   -2.5306   -1.7076    0.0000 C   0  0  0  0  0  0  0  0  0  0  0  0
   -3.5088   -1.9155    0.0000 C   0  0  0  0  0  0  0  0  0  0  0  0
   -4.1779   -1.1723    0.0000 C   0  0  0  0  0  0  0  0  0  0  0  0
   -1.8615   -2.4507    0.0000 O   0  0  0  0  0  0  0  0  0  0  0  0
   -0.8834   -2.2428    0.0000 C   0  0  0  0  0  0  0  0  0  0  0  0
   -0.2142   -2.9860    0.0000 F   0  0  0  0  0  0  0  0  0  0  0  0
   -0.5744   -1.2918    0.0000 F   0  0  0  0  0  0  0  0  0  0  0  0
    0.0000    1.0000    0.0000 C   0  0  0  0  0  0  0  0  0  0  0  0
    0.8660    1.5000    0.0000 C   0  0  0  0  0  0  0  0  0  0  0  0
    1.7321    1.0000    0.0000 C   0  0  0  0  0  0  0  0  0  0  0  0
    1.7321    0.0000    0.0000 C   0  0  0  0  0  0  0  0  0  0  0  0
    0.8660   -0.5000    0.0000 C   0  0  0  0  0  0  0  0  0  0  0  0
    0.0000    0.0000    0.0000 C   0  0  0  0  0  0  0  0  0  0  0  0
    2.5981   -0.5000    0.0000 F   0  0  0  0  0  0  0  0  0  0  0  0
    2.5981    1.5000    0.0000 F   0  0  0  0  0  0  0  0  0  0  0  0
   -0.3660    2.3660    0.0000 N   0  0  0  0  0  0  0  0  0  0  0  0
    0.6340    2.3660    0.0000 C   0  0  0  0  0  0  0  0  0  0  0  0
   -0.8660    3.2321    0.0000 C   0  0  0  0  0  0  0  0  0  0  0  0
  1  2  1  1  0  0  0
  1  3  1  0  0  0  0
  1 24  1  0  0  0  0
  1 32  1  0  0  0  0
  3  4  1  0  0  0  0
  4  5  1  0  0  0  0
  5 10  1  0  0  0  0
  5  6  2  0  0  0  0
  6  7  1  0  0  0  0
  7  8  2  0  0  0  0
  8  9  1  0  0  0  0
  9 13  2  0  0  0  0
  9 10  1  0  0  0  0
 10 11  1  0  0  0  0
 11 12  2  0  0  0  0
 11 14  1  0  0  0  0
 12 13  1  0  0  0  0
 14 19  1  0  0  0  0
 14 15  2  0  0  0  0
 15 16  1  0  0  0  0
 16 17  2  0  0  0  0
 17 18  1  0  0  0  0
 17 20  1  0  0  0  0
 18 19  2  0  0  0  0
 20 21  1  0  0  0  0
 21 22  1  0  0  0  0
 21 23  1  0  0  0  0
 24 29  1  0  0  0  0
 24 25  2  0  0  0  0
 25 26  1  0  0  0  0
 26 27  2  0  0  0  0
 26 31  1  0  0  0  0
 27 28  1  0  0  0  0
 27 30  1  0  0  0  0
 28 29  2  0  0  0  0
 32 33  1  0  0  0  0
 32 34  1  0  0  0  0
M  END
> <MW>
461.42

> <EC50>
0.04408

$$$$
MMV670438
 OpenBabel06241423362D

 33 37  0  0  0  0  0  0  0  0999 V2000
    1.0000    0.0000    0.0000 C   0  0  0  0  0  0  0  0  0  0  0  0
    0.0000    0.0000    0.0000 C   0  0  0  0  0  0  0  0  0  0  0  0
    0.0000    1.0000    0.0000 O   0  0  0  0  0  0  0  0  0  0  0  0
    1.0000    1.0000    0.0000 C   0  0  0  0  0  0  0  0  0  0  0  0
    1.2588   -0.9659    0.0000 C   0  0  0  0  0  0  0  0  0  0  0  0
    0.5517   -1.6730    0.0000 O   0  0  0  0  0  0  0  0  0  0  0  0
    0.8105   -2.6390    0.0000 C   0  0  0  0  0  0  0  0  0  0  0  0
    1.7765   -2.8978    0.0000 C   0  0  0  0  0  0  0  0  0  0  0  0
    2.0353   -3.8637    0.0000 N   0  0  0  0  0  0  0  0  0  0  0  0
    1.3282   -4.5708    0.0000 C   0  0  0  0  0  0  0  0  0  0  0  0
    0.3622   -4.3120    0.0000 C   0  0  0  0  0  0  0  0  0  0  0  0
    0.1034   -3.3461    0.0000 N   0  0  0  0  0  0  0  0  0  0  0  0
   -0.8952   -3.2937    0.0000 C   0  0  0  0  0  0  0  0  0  0  0  0
   -1.2536   -4.2273    0.0000 N   0  0  0  0  0  0  0  0  0  0  0  0
   -0.4764   -4.8566    0.0000 N   0  0  0  0  0  0  0  0  0  0  0  0
   -1.4398   -2.4551    0.0000 C   0  0  0  0  0  0  0  0  0  0  0  0
   -2.4385   -2.5074    0.0000 C   0  0  0  0  0  0  0  0  0  0  0  0
   -2.9831   -1.6687    0.0000 C   0  0  0  0  0  0  0  0  0  0  0  0
   -2.5291   -0.7777    0.0000 C   0  0  0  0  0  0  0  0  0  0  0  0
   -1.5305   -0.7254    0.0000 C   0  0  0  0  0  0  0  0  0  0  0  0
   -0.9859   -1.5641    0.0000 C   0  0  0  0  0  0  0  0  0  0  0  0
   -3.0738    0.0610    0.0000 O   0  0  0  0  0  0  0  0  0  0  0  0
   -2.6198    0.9520    0.0000 C   0  0  0  0  0  0  0  0  0  0  0  0
   -1.6211    1.0043    0.0000 F   0  0  0  0  0  0  0  0  0  0  0  0
   -3.1644    1.7906    0.0000 F   0  0  0  0  0  0  0  0  0  0  0  0
    1.9659   -0.2588    0.0000 C   0  0  0  0  0  0  0  0  0  0  0  0
    2.6730    0.4483    0.0000 C   0  0  0  0  0  0  0  0  0  0  0  0
    3.6390    0.1895    0.0000 C   0  0  0  0  0  0  0  0  0  0  0  0
    3.8978   -0.7765    0.0000 C   0  0  0  0  0  0  0  0  0  0  0  0
    3.1907   -1.4836    0.0000 C   0  0  0  0  0  0  0  0  0  0  0  0
    2.2247   -1.2247    0.0000 C   0  0  0  0  0  0  0  0  0  0  0  0
    4.8637   -1.0353    0.0000 F   0  0  0  0  0  0  0  0  0  0  0  0
    4.3461    0.8966    0.0000 F   0  0  0  0  0  0  0  0  0  0  0  0
  1  4  1  0  0  0  0
  1  2  1  0  0  0  0
  1  5  1  0  0  0  0
  1 26  1  0  0  0  0
  2  3  1  0  0  0  0
  3  4  1  0  0  0  0
  5  6  1  0  0  0  0
  6  7  1  0  0  0  0
  7 12  1  0  0  0  0
  7  8  2  0  0  0  0
  8  9  1  0  0  0  0
  9 10  2  0  0  0  0
 10 11  1  0  0  0  0
 11 15  2  0  0  0  0
 11 12  1  0  0  0  0
 12 13  1  0  0  0  0
 13 14  2  0  0  0  0
 13 16  1  0  0  0  0
 14 15  1  0  0  0  0
 16 21  1  0  0  0  0
 16 17  2  0  0  0  0
 17 18  1  0  0  0  0
 18 19  2  0  0  0  0
 19 20  1  0  0  0  0
 19 22  1  0  0  0  0
 20 21  2  0  0  0  0
 22 23  1  0  0  0  0
 23 24  1  0  0  0  0
 23 25  1  0  0  0  0
 26 31  1  0  0  0  0
 26 27  2  0  0  0  0
 27 28  1  0  0  0  0
 28 29  2  0  0  0  0
 28 33  1  0  0  0  0
 29 30  1  0  0  0  0
 29 32  1  0  0  0  0
 30 31  2  0  0  0  0
M  END
> <MW>
460.39

> <EC50>
0.4833

$$$$
MMV670652
 OpenBabel06241423362D

 32 35  0  0  1  0  0  0  0  0999 V2000
   -0.8660    1.5000    0.0000 C   0  0  3  0  0  0  0  0  0  0  0  0
   -1.7321    1.0000    0.0000 C   0  0  0  0  0  0  0  0  0  0  0  0
   -1.7321    0.0000    0.0000 O   0  0  0  0  0  0  0  0  0  0  0  0
   -2.5981   -0.5000    0.0000 C   0  0  0  0  0  0  0  0  0  0  0  0
   -3.4641    0.0000    0.0000 C   0  0  0  0  0  0  0  0  0  0  0  0
   -4.3301   -0.5000    0.0000 N   0  0  0  0  0  0  0  0  0  0  0  0
   -4.3301   -1.5000    0.0000 C   0  0  0  0  0  0  0  0  0  0  0  0
   -3.4641   -2.0000    0.0000 C   0  0  0  0  0  0  0  0  0  0  0  0
   -2.5981   -1.5000    0.0000 N   0  0  0  0  0  0  0  0  0  0  0  0
   -1.8549   -2.1691    0.0000 C   0  0  0  0  0  0  0  0  0  0  0  0
   -2.2617   -3.0827    0.0000 N   0  0  0  0  0  0  0  0  0  0  0  0
   -3.2562   -2.9781    0.0000 N   0  0  0  0  0  0  0  0  0  0  0  0
   -0.8768   -1.9612    0.0000 C   0  0  0  0  0  0  0  0  0  0  0  0
   -0.5678   -1.0102    0.0000 C   0  0  0  0  0  0  0  0  0  0  0  0
    0.4104   -0.8023    0.0000 C   0  0  0  0  0  0  0  0  0  0  0  0
    1.0795   -1.5454    0.0000 C   0  0  0  0  0  0  0  0  0  0  0  0
    0.7705   -2.4965    0.0000 C   0  0  0  0  0  0  0  0  0  0  0  0
   -0.2077   -2.7044    0.0000 C   0  0  0  0  0  0  0  0  0  0  0  0
    2.0577   -1.3375    0.0000 C   0  0  0  0  0  0  0  0  0  0  0  0
    3.0358   -1.1296    0.0000 N   0  0  0  0  0  0  0  0  0  0  0  0
    0.0000    1.0000    0.0000 C   0  0  0  0  0  0  0  0  0  0  0  0
    0.8660    1.5000    0.0000 C   0  0  0  0  0  0  0  0  0  0  0  0
    1.7321    1.0000    0.0000 C   0  0  0  0  0  0  0  0  0  0  0  0
    1.7321    0.0000    0.0000 C   0  0  0  0  0  0  0  0  0  0  0  0
    0.8660   -0.5000    0.0000 C   0  0  0  0  0  0  0  0  0  0  0  0
    0.0000    0.0000    0.0000 C   0  0  0  0  0  0  0  0  0  0  0  0
    2.5981   -0.5000    0.0000 F   0  0  0  0  0  0  0  0  0  0  0  0
    2.5981    1.5000    0.0000 F   0  0  0  0  0  0  0  0  0  0  0  0
   -0.8660    2.5000    0.0000 O   0  0  0  0  0  0  0  0  0  0  0  0
    0.0000    3.0000    0.0000 C   0  0  0  0  0  0  0  0  0  0  0  0
    0.8660    2.5000    0.0000 F   0  0  0  0  0  0  0  0  0  0  0  0
    0.0000    4.0000    0.0000 F   0  0  0  0  0  0  0  0  0  0  0  0
  1  2  1  0  0  0  0
  1 21  1  0  0  0  0
  1 29  1  0  0  0  0
  2  3  1  0  0  0  0
  3  4  1  0  0  0  0
  4  9  1  0  0  0  0
  4  5  2  0  0  0  0
  5  6  1  0  0  0  0
  6  7  2  0  0  0  0
  7  8  1  0  0  0  0
  8 12  2  0  0  0  0
  8  9  1  0  0  0  0
  9 10  1  0  0  0  0
 10 11  2  0  0  0  0
 10 13  1  0  0  0  0
 11 12  1  0  0  0  0
 13 18  1  0  0  0  0
 13 14  2  0  0  0  0
 14 15  1  0  0  0  0
 15 16  2  0  0  0  0
 16 17  1  0  0  0  0
 16 19  1  0  0  0  0
 17 18  2  0  0  0  0
 19 20  3  0  0  0  0
 21 26  1  0  0  0  0
 21 22  2  0  0  0  0
 22 23  1  0  0  0  0
 23 24  2  0  0  0  0
 23 28  1  0  0  0  0
 24 25  1  0  0  0  0
 24 27  1  0  0  0  0
 25 26  2  0  0  0  0
 29 30  1  0  0  0  0
 30 31  1  0  0  0  0
 30 32  1  0  0  0  0
M  END
> <MW>
443.36

> <EC50>
0.01668

$$$$
MMV670659
 OpenBabel06241423362D

 30 34  0  0  0  0  0  0  0  0999 V2000
   -3.9703   -1.4680    0.0000 C   0  0  0  0  0  0  0  0  0  0  0  0
   -3.9703   -2.4680    0.0000 N   0  0  0  0  0  0  0  0  0  0  0  0
   -3.1042   -2.9680    0.0000 C   0  0  0  0  0  0  0  0  0  0  0  0
   -2.2382   -2.4680    0.0000 C   0  0  0  0  0  0  0  0  0  0  0  0
   -2.2382   -1.4680    0.0000 N   0  0  0  0  0  0  0  0  0  0  0  0
   -3.1042   -0.9680    0.0000 C   0  0  0  0  0  0  0  0  0  0  0  0
   -3.1042    0.0320    0.0000 O   0  0  0  0  0  0  0  0  0  0  0  0
   -3.9703    0.5320    0.0000 C   0  0  0  0  0  0  0  0  0  0  0  0
   -4.8363    0.0320    0.0000 C   0  0  0  0  0  0  0  0  0  0  0  0
   -5.7023    0.5320    0.0000 C   0  0  0  0  0  0  0  0  0  0  0  0
   -5.7023    1.5320    0.0000 C   0  0  0  0  0  0  0  0  0  0  0  0
   -4.8363    2.0320    0.0000 C   0  0  0  0  0  0  0  0  0  0  0  0
   -3.9703    1.5320    0.0000 C   0  0  0  0  0  0  0  0  0  0  0  0
   -6.5683    2.0320    0.0000 C   0  0  0  0  0  0  0  0  0  0  0  0
   -7.4344    1.5320    0.0000 C   0  0  0  0  0  0  0  0  0  0  0  0
   -7.4344    0.5320    0.0000 C   0  0  0  0  0  0  0  0  0  0  0  0
   -6.5683    0.0320    0.0000 C   0  0  0  0  0  0  0  0  0  0  0  0
   -1.2872   -1.1590    0.0000 C   0  0  0  0  0  0  0  0  0  0  0  0
   -0.6994   -1.9680    0.0000 N   0  0  0  0  0  0  0  0  0  0  0  0
   -1.2872   -2.7770    0.0000 N   0  0  0  0  0  0  0  0  0  0  0  0
   -0.9781   -0.2079    0.0000 C   0  0  0  0  0  0  0  0  0  0  0  0
   -1.6473    0.5352    0.0000 C   0  0  0  0  0  0  0  0  0  0  0  0
   -1.3383    1.4863    0.0000 C   0  0  0  0  0  0  0  0  0  0  0  0
   -0.3601    1.6942    0.0000 C   0  0  0  0  0  0  0  0  0  0  0  0
    0.3090    0.9511    0.0000 C   0  0  0  0  0  0  0  0  0  0  0  0
    0.0000    0.0000    0.0000 C   0  0  0  0  0  0  0  0  0  0  0  0
   -0.0511    2.6453    0.0000 O   0  0  0  0  0  0  0  0  0  0  0  0
    0.9271    2.8532    0.0000 C   0  0  0  0  0  0  0  0  0  0  0  0
    1.5962    2.1100    0.0000 F   0  0  0  0  0  0  0  0  0  0  0  0
    1.2361    3.8042    0.0000 F   0  0  0  0  0  0  0  0  0  0  0  0
  1  6  2  0  0  0  0
  1  2  1  0  0  0  0
  2  3  2  0  0  0  0
  3  4  1  0  0  0  0
  4 20  2  0  0  0  0
  4  5  1  0  0  0  0
  5  6  1  0  0  0  0
  5 18  1  0  0  0  0
  6  7  1  0  0  0  0
  7  8  1  0  0  0  0
  8 13  1  0  0  0  0
  8  9  2  0  0  0  0
  9 10  1  0  0  0  0
 10 17  1  0  0  0  0
 10 11  2  0  0  0  0
 11 12  1  0  0  0  0
 11 14  1  0  0  0  0
 12 13  2  0  0  0  0
 14 15  2  0  0  0  0
 15 16  1  0  0  0  0
 16 17  2  0  0  0  0
 18 19  2  0  0  0  0
 18 21  1  0  0  0  0
 19 20  1  0  0  0  0
 21 26  1  0  0  0  0
 21 22  2  0  0  0  0
 22 23  1  0  0  0  0
 23 24  2  0  0  0  0
 24 25  1  0  0  0  0
 24 27  1  0  0  0  0
 25 26  2  0  0  0  0
 27 28  1  0  0  0  0
 28 29  1  0  0  0  0
 28 30  1  0  0  0  0
M  END
> <MW>
404.38

> <EC50>
0.1147

$$$$
MMV670762
 OpenBabel06241423362D

 25 27  0  0  0  0  0  0  0  0999 V2000
    3.9328   -1.5657    0.0000 C   0  0  0  0  0  0  0  0  0  0  0  0
    4.6019   -0.8226    0.0000 N   0  0  0  0  0  0  0  0  0  0  0  0
    4.2929    0.1285    0.0000 C   0  0  0  0  0  0  0  0  0  0  0  0
    3.3147    0.3364    0.0000 C   0  0  0  0  0  0  0  0  0  0  0  0
    2.6456   -0.4067    0.0000 N   0  0  0  0  0  0  0  0  0  0  0  0
    2.9546   -1.3578    0.0000 C   0  0  0  0  0  0  0  0  0  0  0  0
    2.2855   -2.1009    0.0000 O   0  0  0  0  0  0  0  0  0  0  0  0
    2.5945   -3.0520    0.0000 C   0  0  0  0  0  0  0  0  0  0  0  0
    1.9254   -3.7951    0.0000 C   0  0  0  0  0  0  0  0  0  0  0  0
    1.7175   -4.7733    0.0000 F   0  0  0  0  0  0  0  0  0  0  0  0
    2.6685   -4.4643    0.0000 F   0  0  0  0  0  0  0  0  0  0  0  0
    0.9472   -3.5872    0.0000 F   0  0  0  0  0  0  0  0  0  0  0  0
    1.7321    0.0000    0.0000 C   0  0  0  0  0  0  0  0  0  0  0  0
    1.8366    0.9945    0.0000 N   0  0  0  0  0  0  0  0  0  0  0  0
    2.8147    1.2024    0.0000 N   0  0  0  0  0  0  0  0  0  0  0  0
    0.8660   -0.5000    0.0000 C   0  0  0  0  0  0  0  0  0  0  0  0
    0.8660   -1.5000    0.0000 C   0  0  0  0  0  0  0  0  0  0  0  0
    0.0000   -2.0000    0.0000 C   0  0  0  0  0  0  0  0  0  0  0  0
   -0.8660   -1.5000    0.0000 C   0  0  0  0  0  0  0  0  0  0  0  0
   -0.8660   -0.5000    0.0000 C   0  0  0  0  0  0  0  0  0  0  0  0
    0.0000    0.0000    0.0000 C   0  0  0  0  0  0  0  0  0  0  0  0
   -1.7321   -2.0000    0.0000 O   0  0  0  0  0  0  0  0  0  0  0  0
   -2.5981   -1.5000    0.0000 C   0  0  0  0  0  0  0  0  0  0  0  0
   -2.5981   -0.5000    0.0000 F   0  0  0  0  0  0  0  0  0  0  0  0
   -3.4641   -2.0000    0.0000 F   0  0  0  0  0  0  0  0  0  0  0  0
  1  6  2  0  0  0  0
  1  2  1  0  0  0  0
  2  3  2  0  0  0  0
  3  4  1  0  0  0  0
  4 15  2  0  0  0  0
  4  5  1  0  0  0  0
  5  6  1  0  0  0  0
  5 13  1  0  0  0  0
  6  7  1  0  0  0  0
  7  8  1  0  0  0  0
  8  9  1  0  0  0  0
  9 10  1  0  0  0  0
  9 11  1  0  0  0  0
  9 12  1  0  0  0  0
 13 14  2  0  0  0  0
 13 16  1  0  0  0  0
 14 15  1  0  0  0  0
 16 21  1  0  0  0  0
 16 17  2  0  0  0  0
 17 18  1  0  0  0  0
 18 19  2  0  0  0  0
 19 20  1  0  0  0  0
 19 22  1  0  0  0  0
 20 21  2  0  0  0  0
 22 23  1  0  0  0  0
 23 24  1  0  0  0  0
 23 25  1  0  0  0  0
M  END
> <MW>
360.24

> <EC50>
10

$$$$
MMV670763
 OpenBabel06241423362D

 33 36  0  0  1  0  0  0  0  0999 V2000
   -0.8660    1.5000    0.0000 C   0  0  1  0  0  0  0  0  0  0  0  0
   -1.3660    0.6340    0.0000 H   0  0  0  0  0  0  0  0  0  0  0  0
   -1.7321    2.0000    0.0000 C   0  0  0  0  0  0  0  0  0  0  0  0
   -2.5981    1.5000    0.0000 O   0  0  0  0  0  0  0  0  0  0  0  0
   -3.4641    2.0000    0.0000 C   0  0  0  0  0  0  0  0  0  0  0  0
   -3.4641    3.0000    0.0000 C   0  0  0  0  0  0  0  0  0  0  0  0
   -4.3301    3.5000    0.0000 N   0  0  0  0  0  0  0  0  0  0  0  0
   -5.1962    3.0000    0.0000 C   0  0  0  0  0  0  0  0  0  0  0  0
   -5.1962    2.0000    0.0000 C   0  0  0  0  0  0  0  0  0  0  0  0
   -4.3301    1.5000    0.0000 N   0  0  0  0  0  0  0  0  0  0  0  0
   -4.5380    0.5219    0.0000 C   0  0  0  0  0  0  0  0  0  0  0  0
   -5.5326    0.4173    0.0000 N   0  0  0  0  0  0  0  0  0  0  0  0
   -5.9393    1.3309    0.0000 N   0  0  0  0  0  0  0  0  0  0  0  0
   -3.8689   -0.2213    0.0000 C   0  0  0  0  0  0  0  0  0  0  0  0
   -2.8908   -0.0134    0.0000 C   0  0  0  0  0  0  0  0  0  0  0  0
   -2.2216   -0.7565    0.0000 C   0  0  0  0  0  0  0  0  0  0  0  0
   -2.5306   -1.7076    0.0000 C   0  0  0  0  0  0  0  0  0  0  0  0
   -3.5088   -1.9155    0.0000 C   0  0  0  0  0  0  0  0  0  0  0  0
   -4.1779   -1.1723    0.0000 C   0  0  0  0  0  0  0  0  0  0  0  0
   -1.8615   -2.4507    0.0000 O   0  0  0  0  0  0  0  0  0  0  0  0
   -0.8834   -2.2428    0.0000 C   0  0  0  0  0  0  0  0  0  0  0  0
   -0.2142   -2.9860    0.0000 F   0  0  0  0  0  0  0  0  0  0  0  0
   -0.5744   -1.2918    0.0000 F   0  0  0  0  0  0  0  0  0  0  0  0
    0.0000    1.0000    0.0000 C   0  0  0  0  0  0  0  0  0  0  0  0
    0.8660    1.5000    0.0000 C   0  0  0  0  0  0  0  0  0  0  0  0
    1.7321    1.0000    0.0000 C   0  0  0  0  0  0  0  0  0  0  0  0
    1.7321    0.0000    0.0000 C   0  0  0  0  0  0  0  0  0  0  0  0
    0.8660   -0.5000    0.0000 C   0  0  0  0  0  0  0  0  0  0  0  0
    0.0000    0.0000    0.0000 C   0  0  0  0  0  0  0  0  0  0  0  0
    2.5981   -0.5000    0.0000 F   0  0  0  0  0  0  0  0  0  0  0  0
    2.5981    1.5000    0.0000 F   0  0  0  0  0  0  0  0  0  0  0  0
   -0.3660    2.3660    0.0000 N   0  0  0  0  0  0  0  0  0  0  0  0
    0.6340    2.3660    0.0000 C   0  0  0  0  0  0  0  0  0  0  0  0
  1  2  1  1  0  0  0
  1  3  1  0  0  0  0
  1 24  1  0  0  0  0
  1 32  1  0  0  0  0
  3  4  1  0  0  0  0
  4  5  1  0  0  0  0
  5 10  1  0  0  0  0
  5  6  2  0  0  0  0
  6  7  1  0  0  0  0
  7  8  2  0  0  0  0
  8  9  1  0  0  0  0
  9 13  2  0  0  0  0
  9 10  1  0  0  0  0
 10 11  1  0  0  0  0
 11 12  2  0  0  0  0
 11 14  1  0  0  0  0
 12 13  1  0  0  0  0
 14 19  1  0  0  0  0
 14 15  2  0  0  0  0
 15 16  1  0  0  0  0
 16 17  2  0  0  0  0
 17 18  1  0  0  0  0
 17 20  1  0  0  0  0
 18 19  2  0  0  0  0
 20 21  1  0  0  0  0
 21 22  1  0  0  0  0
 21 23  1  0  0  0  0
 24 29  1  0  0  0  0
 24 25  2  0  0  0  0
 25 26  1  0  0  0  0
 26 27  2  0  0  0  0
 26 31  1  0  0  0  0
 27 28  1  0  0  0  0
 27 30  1  0  0  0  0
 28 29  2  0  0  0  0
 32 33  1  0  0  0  0
M  END
> <MW>
447.39

> <EC50>
10

$$$$
MMV670764
 OpenBabel06241423362D

 30 33  0  0  0  0  0  0  0  0999 V2000
   -3.9703   -1.4680    0.0000 C   0  0  0  0  0  0  0  0  0  0  0  0
   -3.9703   -2.4680    0.0000 N   0  0  0  0  0  0  0  0  0  0  0  0
   -3.1042   -2.9680    0.0000 C   0  0  0  0  0  0  0  0  0  0  0  0
   -2.2382   -2.4680    0.0000 C   0  0  0  0  0  0  0  0  0  0  0  0
   -2.2382   -1.4680    0.0000 N   0  0  0  0  0  0  0  0  0  0  0  0
   -3.1042   -0.9680    0.0000 C   0  0  0  0  0  0  0  0  0  0  0  0
   -3.1042    0.0320    0.0000 O   0  0  0  0  0  0  0  0  0  0  0  0
   -3.9703    0.5320    0.0000 C   0  0  0  0  0  0  0  0  0  0  0  0
   -4.8363    0.0320    0.0000 C   0  0  0  0  0  0  0  0  0  0  0  0
   -5.7023    0.5320    0.0000 C   0  0  0  0  0  0  0  0  0  0  0  0
   -5.7023    1.5320    0.0000 C   0  0  0  0  0  0  0  0  0  0  0  0
   -4.8363    2.0320    0.0000 C   0  0  0  0  0  0  0  0  0  0  0  0
   -3.9703    1.5320    0.0000 C   0  0  0  0  0  0  0  0  0  0  0  0
   -6.5683    2.0320    0.0000 C   0  0  0  0  0  0  0  0  0  0  0  0
   -7.5683    2.0320    0.0000 F   0  0  0  0  0  0  0  0  0  0  0  0
   -7.0683    1.1660    0.0000 F   0  0  0  0  0  0  0  0  0  0  0  0
   -6.5683    3.0320    0.0000 F   0  0  0  0  0  0  0  0  0  0  0  0
   -1.2872   -1.1590    0.0000 C   0  0  0  0  0  0  0  0  0  0  0  0
   -0.6994   -1.9680    0.0000 N   0  0  0  0  0  0  0  0  0  0  0  0
   -1.2872   -2.7770    0.0000 N   0  0  0  0  0  0  0  0  0  0  0  0
   -0.9781   -0.2079    0.0000 C   0  0  0  0  0  0  0  0  0  0  0  0
   -1.6473    0.5352    0.0000 C   0  0  0  0  0  0  0  0  0  0  0  0
   -1.3383    1.4863    0.0000 C   0  0  0  0  0  0  0  0  0  0  0  0
   -0.3601    1.6942    0.0000 C   0  0  0  0  0  0  0  0  0  0  0  0
    0.3090    0.9511    0.0000 C   0  0  0  0  0  0  0  0  0  0  0  0
    0.0000    0.0000    0.0000 C   0  0  0  0  0  0  0  0  0  0  0  0
   -0.0511    2.6453    0.0000 O   0  0  0  0  0  0  0  0  0  0  0  0
    0.9271    2.8532    0.0000 C   0  0  0  0  0  0  0  0  0  0  0  0
    1.5962    2.1100    0.0000 F   0  0  0  0  0  0  0  0  0  0  0  0
    1.2361    3.8042    0.0000 F   0  0  0  0  0  0  0  0  0  0  0  0
  1  6  2  0  0  0  0
  1  2  1  0  0  0  0
  2  3  2  0  0  0  0
  3  4  1  0  0  0  0
  4 20  2  0  0  0  0
  4  5  1  0  0  0  0
  5  6  1  0  0  0  0
  5 18  1  0  0  0  0
  6  7  1  0  0  0  0
  7  8  1  0  0  0  0
  8 13  1  0  0  0  0
  8  9  2  0  0  0  0
  9 10  1  0  0  0  0
 10 11  2  0  0  0  0
 11 12  1  0  0  0  0
 11 14  1  0  0  0  0
 12 13  2  0  0  0  0
 14 15  1  0  0  0  0
 14 16  1  0  0  0  0
 14 17  1  0  0  0  0
 18 19  2  0  0  0  0
 18 21  1  0  0  0  0
 19 20  1  0  0  0  0
 21 26  1  0  0  0  0
 21 22  2  0  0  0  0
 22 23  1  0  0  0  0
 23 24  2  0  0  0  0
 24 25  1  0  0  0  0
 24 27  1  0  0  0  0
 25 26  2  0  0  0  0
 27 28  1  0  0  0  0
 28 29  1  0  0  0  0
 28 30  1  0  0  0  0
M  END
> <MW>
422.31

> <EC50>
0.3829

$$$$
MMV670765
 OpenBabel06241423362D

 28 31  0  0  0  0  0  0  0  0999 V2000
   -3.9703   -1.4680    0.0000 C    0  0  0  0  0  0  0  0  0  0  0  0
   -3.9703   -2.4680    0.0000 N    0  0  0  0  0  0  0  0  0  0  0  0
   -3.1042   -2.9680    0.0000 C    0  0  0  0  0  0  0  0  0  0  0  0
   -2.2382   -2.4680    0.0000 C    0  0  0  0  0  0  0  0  0  0  0  0
   -2.2382   -1.4680    0.0000 N    0  0  0  0  0  0  0  0  0  0  0  0
   -3.1042   -0.9680    0.0000 C    0  0  0  0  0  0  0  0  0  0  0  0
   -3.1042    0.0320    0.0000 O    0  0  0  0  0  0  0  0  0  0  0  0
   -3.9703    0.5320    0.0000 C    0  0  0  0  0  0  0  0  0  0  0  0
   -4.8363    0.0320    0.0000 C    0  0  0  0  0  0  0  0  0  0  0  0
   -5.7023    0.5320    0.0000 C    0  0  0  0  0  0  0  0  0  0  0  0
   -5.7023    1.5320    0.0000 C    0  0  0  0  0  0  0  0  0  0  0  0
   -4.8363    2.0320    0.0000 C    0  0  0  0  0  0  0  0  0  0  0  0
   -3.9703    1.5320    0.0000 C    0  0  0  0  0  0  0  0  0  0  0  0
   -6.5683    2.0320    0.0000 Cl   0  0  0  0  0  0  0  0  0  0  0  0
   -6.5683    0.0320    0.0000 Cl   0  0  0  0  0  0  0  0  0  0  0  0
   -1.2872   -1.1590    0.0000 C    0  0  0  0  0  0  0  0  0  0  0  0
   -0.6994   -1.9680    0.0000 N    0  0  0  0  0  0  0  0  0  0  0  0
   -1.2872   -2.7770    0.0000 N    0  0  0  0  0  0  0  0  0  0  0  0
   -0.9781   -0.2079    0.0000 C    0  0  0  0  0  0  0  0  0  0  0  0
   -1.6473    0.5352    0.0000 C    0  0  0  0  0  0  0  0  0  0  0  0
   -1.3383    1.4863    0.0000 C    0  0  0  0  0  0  0  0  0  0  0  0
   -0.3601    1.6942    0.0000 C    0  0  0  0  0  0  0  0  0  0  0  0
    0.3090    0.9511    0.0000 C    0  0  0  0  0  0  0  0  0  0  0  0
    0.0000    0.0000    0.0000 C    0  0  0  0  0  0  0  0  0  0  0  0
   -0.0511    2.6453    0.0000 O    0  0  0  0  0  0  0  0  0  0  0  0
    0.9271    2.8532    0.0000 C    0  0  0  0  0  0  0  0  0  0  0  0
    1.5962    2.1100    0.0000 F    0  0  0  0  0  0  0  0  0  0  0  0
    1.2361    3.8042    0.0000 F    0  0  0  0  0  0  0  0  0  0  0  0
  1  6  2  0  0  0  0
  1  2  1  0  0  0  0
  2  3  2  0  0  0  0
  3  4  1  0  0  0  0
  4 18  2  0  0  0  0
  4  5  1  0  0  0  0
  5  6  1  0  0  0  0
  5 16  1  0  0  0  0
  6  7  1  0  0  0  0
  7  8  1  0  0  0  0
  8 13  1  0  0  0  0
  8  9  2  0  0  0  0
  9 10  1  0  0  0  0
 10 11  2  0  0  0  0
 10 15  1  0  0  0  0
 11 12  1  0  0  0  0
 11 14  1  0  0  0  0
 12 13  2  0  0  0  0
 16 17  2  0  0  0  0
 16 19  1  0  0  0  0
 17 18  1  0  0  0  0
 19 24  1  0  0  0  0
 19 20  2  0  0  0  0
 20 21  1  0  0  0  0
 21 22  2  0  0  0  0
 22 23  1  0  0  0  0
 22 25  1  0  0  0  0
 23 24  2  0  0  0  0
 25 26  1  0  0  0  0
 26 27  1  0  0  0  0
 26 28  1  0  0  0  0
M  END
> <MW>
423.21

> <EC50>
0.4551

$$$$
MMV670767
 OpenBabel06241423362D

 30 33  0  0  0  0  0  0  0  0999 V2000
    0.7138    4.1723    0.0000 C    0  0  0  0  0  0  0  0  0  0  0  0
   -0.1522    4.6723    0.0000 N    0  0  0  0  0  0  0  0  0  0  0  0
   -1.0182    4.1723    0.0000 C    0  0  0  0  0  0  0  0  0  0  0  0
   -1.0182    3.1723    0.0000 C    0  0  0  0  0  0  0  0  0  0  0  0
   -0.1522    2.6723    0.0000 N    0  0  0  0  0  0  0  0  0  0  0  0
    0.7138    3.1723    0.0000 C    0  0  0  0  0  0  0  0  0  0  0  0
    1.5798    2.6723    0.0000 C    0  0  0  0  0  0  0  0  0  0  0  0
    1.5798    1.6723    0.0000 O    0  0  0  0  0  0  0  0  0  0  0  0
    2.4459    3.1723    0.0000 N    0  0  0  0  0  0  0  0  0  0  0  0
    3.3119    2.6723    0.0000 C    0  0  0  0  0  0  0  0  0  0  0  0
    4.1779    3.1723    0.0000 C    0  0  0  0  0  0  0  0  0  0  0  0
    5.0440    2.6723    0.0000 C    0  0  0  0  0  0  0  0  0  0  0  0
    5.0440    1.6723    0.0000 C    0  0  0  0  0  0  0  0  0  0  0  0
    4.1779    1.1723    0.0000 C    0  0  0  0  0  0  0  0  0  0  0  0
    3.3119    1.6723    0.0000 C    0  0  0  0  0  0  0  0  0  0  0  0
    4.1779    0.1723    0.0000 Cl   0  0  0  0  0  0  0  0  0  0  0  0
    5.9100    1.1723    0.0000 F    0  0  0  0  0  0  0  0  0  0  0  0
   -0.3601    1.6942    0.0000 C    0  0  0  0  0  0  0  0  0  0  0  0
   -1.3546    1.5897    0.0000 N    0  0  0  0  0  0  0  0  0  0  0  0
   -1.7614    2.5032    0.0000 N    0  0  0  0  0  0  0  0  0  0  0  0
    0.3090    0.9511    0.0000 C    0  0  0  0  0  0  0  0  0  0  0  0
    1.2872    1.1590    0.0000 C    0  0  0  0  0  0  0  0  0  0  0  0
    1.9563    0.4158    0.0000 C    0  0  0  0  0  0  0  0  0  0  0  0
    1.6473   -0.5352    0.0000 C    0  0  0  0  0  0  0  0  0  0  0  0
    0.6691   -0.7431    0.0000 C    0  0  0  0  0  0  0  0  0  0  0  0
    0.0000    0.0000    0.0000 C    0  0  0  0  0  0  0  0  0  0  0  0
    2.3164   -1.2784    0.0000 O    0  0  0  0  0  0  0  0  0  0  0  0
    2.0074   -2.2294    0.0000 C    0  0  0  0  0  0  0  0  0  0  0  0
    1.0292   -2.4373    0.0000 F    0  0  0  0  0  0  0  0  0  0  0  0
    2.6765   -2.9726    0.0000 F    0  0  0  0  0  0  0  0  0  0  0  0
  1  6  2  0  0  0  0
  1  2  1  0  0  0  0
  2  3  2  0  0  0  0
  3  4  1  0  0  0  0
  4 20  2  0  0  0  0
  4  5  1  0  0  0  0
  5  6  1  0  0  0  0
  5 18  1  0  0  0  0
  6  7  1  0  0  0  0
  7  8  2  0  0  0  0
  7  9  1  0  0  0  0
  9 10  1  0  0  0  0
 10 15  1  0  0  0  0
 10 11  2  0  0  0  0
 11 12  1  0  0  0  0
 12 13  2  0  0  0  0
 13 14  1  0  0  0  0
 13 17  1  0  0  0  0
 14 15  2  0  0  0  0
 14 16  1  0  0  0  0
 18 19  2  0  0  0  0
 18 21  1  0  0  0  0
 19 20  1  0  0  0  0
 21 26  1  0  0  0  0
 21 22  2  0  0  0  0
 22 23  1  0  0  0  0
 23 24  2  0  0  0  0
 24 25  1  0  0  0  0
 24 27  1  0  0  0  0
 25 26  2  0  0  0  0
 27 28  1  0  0  0  0
 28 29  1  0  0  0  0
 28 30  1  0  0  0  0
M  END
> <MW>
433.78

> <EC50>
0.1911

$$$$
MMV670768
 OpenBabel06241423362D

 31 35  0  0  0  0  0  0  0  0999 V2000
    0.7138    4.1723    0.0000 C   0  0  0  0  0  0  0  0  0  0  0  0
   -0.1522    4.6723    0.0000 N   0  0  0  0  0  0  0  0  0  0  0  0
   -1.0182    4.1723    0.0000 C   0  0  0  0  0  0  0  0  0  0  0  0
   -1.0182    3.1723    0.0000 C   0  0  0  0  0  0  0  0  0  0  0  0
   -0.1522    2.6723    0.0000 N   0  0  0  0  0  0  0  0  0  0  0  0
    0.7138    3.1723    0.0000 C   0  0  0  0  0  0  0  0  0  0  0  0
    1.5798    2.6723    0.0000 C   0  0  0  0  0  0  0  0  0  0  0  0
    1.5798    1.6723    0.0000 O   0  0  0  0  0  0  0  0  0  0  0  0
    2.4459    3.1723    0.0000 N   0  0  0  0  0  0  0  0  0  0  0  0
    2.5504    4.1669    0.0000 C   0  0  0  0  0  0  0  0  0  0  0  0
    3.5286    4.3748    0.0000 C   0  0  0  0  0  0  0  0  0  0  0  0
    4.0286    3.5088    0.0000 C   0  0  0  0  0  0  0  0  0  0  0  0
    3.3594    2.7656    0.0000 C   0  0  0  0  0  0  0  0  0  0  0  0
    3.6684    1.8146    0.0000 C   0  0  0  0  0  0  0  0  0  0  0  0
    4.6466    1.6066    0.0000 C   0  0  0  0  0  0  0  0  0  0  0  0
    5.3157    2.3498    0.0000 C   0  0  0  0  0  0  0  0  0  0  0  0
    5.0067    3.3008    0.0000 C   0  0  0  0  0  0  0  0  0  0  0  0
    6.2939    2.1419    0.0000 F   0  0  0  0  0  0  0  0  0  0  0  0
   -0.3601    1.6942    0.0000 C   0  0  0  0  0  0  0  0  0  0  0  0
   -1.3546    1.5897    0.0000 N   0  0  0  0  0  0  0  0  0  0  0  0
   -1.7614    2.5032    0.0000 N   0  0  0  0  0  0  0  0  0  0  0  0
    0.3090    0.9511    0.0000 C   0  0  0  0  0  0  0  0  0  0  0  0
    1.2872    1.1590    0.0000 C   0  0  0  0  0  0  0  0  0  0  0  0
    1.9563    0.4158    0.0000 C   0  0  0  0  0  0  0  0  0  0  0  0
    1.6473   -0.5352    0.0000 C   0  0  0  0  0  0  0  0  0  0  0  0
    0.6691   -0.7431    0.0000 C   0  0  0  0  0  0  0  0  0  0  0  0
    0.0000    0.0000    0.0000 C   0  0  0  0  0  0  0  0  0  0  0  0
    2.3164   -1.2784    0.0000 O   0  0  0  0  0  0  0  0  0  0  0  0
    2.0074   -2.2294    0.0000 C   0  0  0  0  0  0  0  0  0  0  0  0
    1.0292   -2.4373    0.0000 F   0  0  0  0  0  0  0  0  0  0  0  0
    2.6765   -2.9726    0.0000 F   0  0  0  0  0  0  0  0  0  0  0  0
  1  6  2  0  0  0  0
  1  2  1  0  0  0  0
  2  3  2  0  0  0  0
  3  4  1  0  0  0  0
  4 21  2  0  0  0  0
  4  5  1  0  0  0  0
  5  6  1  0  0  0  0
  5 19  1  0  0  0  0
  6  7  1  0  0  0  0
  7  8  2  0  0  0  0
  7  9  1  0  0  0  0
  9 13  1  0  0  0  0
  9 10  1  0  0  0  0
 10 11  1  0  0  0  0
 11 12  1  0  0  0  0
 12 17  1  0  0  0  0
 12 13  2  0  0  0  0
 13 14  1  0  0  0  0
 14 15  2  0  0  0  0
 15 16  1  0  0  0  0
 16 17  2  0  0  0  0
 16 18  1  0  0  0  0
 19 20  2  0  0  0  0
 19 22  1  0  0  0  0
 20 21  1  0  0  0  0
 22 27  1  0  0  0  0
 22 23  2  0  0  0  0
 23 24  1  0  0  0  0
 24 25  2  0  0  0  0
 25 26  1  0  0  0  0
 25 28  1  0  0  0  0
 26 27  2  0  0  0  0
 28 29  1  0  0  0  0
 29 30  1  0  0  0  0
 29 31  1  0  0  0  0
M  END
> <MW>
425.37

> <EC50>
10

$$$$
MMV670934
 OpenBabel06241423362D

 28 31  0  0  0  0  0  0  0  0999 V2000
    3.9703    1.4680    0.0000 C    0  0  0  0  0  0  0  0  0  0  0  0
    3.9703    2.4680    0.0000 N    0  0  0  0  0  0  0  0  0  0  0  0
    3.1042    2.9680    0.0000 C    0  0  0  0  0  0  0  0  0  0  0  0
    2.2382    2.4680    0.0000 C    0  0  0  0  0  0  0  0  0  0  0  0
    2.2382    1.4680    0.0000 N    0  0  0  0  0  0  0  0  0  0  0  0
    3.1042    0.9680    0.0000 C    0  0  0  0  0  0  0  0  0  0  0  0
    3.1042   -0.0320    0.0000 N    0  0  0  0  0  0  0  0  0  0  0  0
    3.9703   -0.5320    0.0000 C    0  0  0  0  0  0  0  0  0  0  0  0
    4.8363   -0.0320    0.0000 C    0  0  0  0  0  0  0  0  0  0  0  0
    5.7023   -0.5320    0.0000 C    0  0  0  0  0  0  0  0  0  0  0  0
    5.7023   -1.5320    0.0000 C    0  0  0  0  0  0  0  0  0  0  0  0
    4.8363   -2.0320    0.0000 C    0  0  0  0  0  0  0  0  0  0  0  0
    3.9703   -1.5320    0.0000 C    0  0  0  0  0  0  0  0  0  0  0  0
    4.8363   -3.0320    0.0000 Cl   0  0  0  0  0  0  0  0  0  0  0  0
    6.5683   -2.0320    0.0000 Cl   0  0  0  0  0  0  0  0  0  0  0  0
    1.2872    1.1590    0.0000 C    0  0  0  0  0  0  0  0  0  0  0  0
    0.6994    1.9680    0.0000 N    0  0  0  0  0  0  0  0  0  0  0  0
    1.2872    2.7770    0.0000 N    0  0  0  0  0  0  0  0  0  0  0  0
    0.9781    0.2079    0.0000 C    0  0  0  0  0  0  0  0  0  0  0  0
    1.6473   -0.5352    0.0000 C    0  0  0  0  0  0  0  0  0  0  0  0
    1.3383   -1.4863    0.0000 C    0  0  0  0  0  0  0  0  0  0  0  0
    0.3601   -1.6942    0.0000 C    0  0  0  0  0  0  0  0  0  0  0  0
   -0.3090   -0.9511    0.0000 C    0  0  0  0  0  0  0  0  0  0  0  0
    0.0000    0.0000    0.0000 C    0  0  0  0  0  0  0  0  0  0  0  0
    0.0511   -2.6453    0.0000 O    0  0  0  0  0  0  0  0  0  0  0  0
   -0.9271   -2.8532    0.0000 C    0  0  0  0  0  0  0  0  0  0  0  0
   -1.5962   -2.1100    0.0000 F    0  0  0  0  0  0  0  0  0  0  0  0
   -1.2361   -3.8042    0.0000 F    0  0  0  0  0  0  0  0  0  0  0  0
  1  6  2  0  0  0  0
  1  2  1  0  0  0  0
  2  3  2  0  0  0  0
  3  4  1  0  0  0  0
  4 18  2  0  0  0  0
  4  5  1  0  0  0  0
  5  6  1  0  0  0  0
  5 16  1  0  0  0  0
  6  7  1  0  0  0  0
  7  8  1  0  0  0  0
  8 13  1  0  0  0  0
  8  9  2  0  0  0  0
  9 10  1  0  0  0  0
 10 11  2  0  0  0  0
 11 12  1  0  0  0  0
 11 15  1  0  0  0  0
 12 13  2  0  0  0  0
 12 14  1  0  0  0  0
 16 17  2  0  0  0  0
 16 19  1  0  0  0  0
 17 18  1  0  0  0  0
 19 24  1  0  0  0  0
 19 20  2  0  0  0  0
 20 21  1  0  0  0  0
 21 22  2  0  0  0  0
 22 23  1  0  0  0  0
 22 25  1  0  0  0  0
 23 24  2  0  0  0  0
 25 26  1  0  0  0  0
 26 27  1  0  0  0  0
 26 28  1  0  0  0  0
M  END
> <MW>
422.22

> <EC50>
9.635

$$$$
MMV670935
 OpenBabel06241423362D

 27 30  0  0  0  0  0  0  0  0999 V2000
    3.9703    1.4680    0.0000 C    0  0  0  0  0  0  0  0  0  0  0  0
    3.9703    2.4680    0.0000 N    0  0  0  0  0  0  0  0  0  0  0  0
    3.1042    2.9680    0.0000 C    0  0  0  0  0  0  0  0  0  0  0  0
    2.2382    2.4680    0.0000 C    0  0  0  0  0  0  0  0  0  0  0  0
    2.2382    1.4680    0.0000 N    0  0  0  0  0  0  0  0  0  0  0  0
    3.1042    0.9680    0.0000 C    0  0  0  0  0  0  0  0  0  0  0  0
    3.1042   -0.0320    0.0000 O    0  0  0  0  0  0  0  0  0  0  0  0
    3.9703   -0.5320    0.0000 C    0  0  0  0  0  0  0  0  0  0  0  0
    4.8363   -0.0320    0.0000 C    0  0  0  0  0  0  0  0  0  0  0  0
    5.7023   -0.5320    0.0000 C    0  0  0  0  0  0  0  0  0  0  0  0
    5.7023   -1.5320    0.0000 C    0  0  0  0  0  0  0  0  0  0  0  0
    4.8363   -2.0320    0.0000 C    0  0  0  0  0  0  0  0  0  0  0  0
    3.9703   -1.5320    0.0000 C    0  0  0  0  0  0  0  0  0  0  0  0
    4.8363   -3.0320    0.0000 Cl   0  0  0  0  0  0  0  0  0  0  0  0
    1.2872    1.1590    0.0000 C    0  0  0  0  0  0  0  0  0  0  0  0
    0.6994    1.9680    0.0000 N    0  0  0  0  0  0  0  0  0  0  0  0
    1.2872    2.7770    0.0000 N    0  0  0  0  0  0  0  0  0  0  0  0
    0.9781    0.2079    0.0000 C    0  0  0  0  0  0  0  0  0  0  0  0
    1.6473   -0.5352    0.0000 C    0  0  0  0  0  0  0  0  0  0  0  0
    1.3383   -1.4863    0.0000 C    0  0  0  0  0  0  0  0  0  0  0  0
    0.3601   -1.6942    0.0000 C    0  0  0  0  0  0  0  0  0  0  0  0
   -0.3090   -0.9511    0.0000 C    0  0  0  0  0  0  0  0  0  0  0  0
    0.0000    0.0000    0.0000 C    0  0  0  0  0  0  0  0  0  0  0  0
    0.0511   -2.6453    0.0000 O    0  0  0  0  0  0  0  0  0  0  0  0
   -0.9271   -2.8532    0.0000 C    0  0  0  0  0  0  0  0  0  0  0  0
   -1.5962   -2.1100    0.0000 F    0  0  0  0  0  0  0  0  0  0  0  0
   -1.2361   -3.8042    0.0000 F    0  0  0  0  0  0  0  0  0  0  0  0
  1  6  2  0  0  0  0
  1  2  1  0  0  0  0
  2  3  2  0  0  0  0
  3  4  1  0  0  0  0
  4 17  2  0  0  0  0
  4  5  1  0  0  0  0
  5  6  1  0  0  0  0
  5 15  1  0  0  0  0
  6  7  1  0  0  0  0
  7  8  1  0  0  0  0
  8 13  1  0  0  0  0
  8  9  2  0  0  0  0
  9 10  1  0  0  0  0
 10 11  2  0  0  0  0
 11 12  1  0  0  0  0
 12 13  2  0  0  0  0
 12 14  1  0  0  0  0
 15 16  2  0  0  0  0
 15 18  1  0  0  0  0
 16 17  1  0  0  0  0
 18 23  1  0  0  0  0
 18 19  2  0  0  0  0
 19 20  1  0  0  0  0
 20 21  2  0  0  0  0
 21 22  1  0  0  0  0
 21 24  1  0  0  0  0
 22 23  2  0  0  0  0
 24 25  1  0  0  0  0
 25 26  1  0  0  0  0
 25 27  1  0  0  0  0
M  END
> <MW>
388.76

> <EC50>
3.066

$$$$
MMV670936
 OpenBabel06241423362D

 30 33  0  0  0  0  0  0  0  0999 V2000
    1.7321    0.0000    0.0000 C   0  0  0  0  0  0  0  0  0  0  0  0
    2.5981   -0.5000    0.0000 C   0  0  0  0  0  0  0  0  0  0  0  0
    3.4641    0.0000    0.0000 O   0  0  0  0  0  0  0  0  0  0  0  0
    4.3301   -0.5000    0.0000 C   0  0  0  0  0  0  0  0  0  0  0  0
    4.3301   -1.5000    0.0000 C   0  0  0  0  0  0  0  0  0  0  0  0
    5.1962   -2.0000    0.0000 N   0  0  0  0  0  0  0  0  0  0  0  0
    6.0622   -1.5000    0.0000 C   0  0  0  0  0  0  0  0  0  0  0  0
    6.0622   -0.5000    0.0000 C   0  0  0  0  0  0  0  0  0  0  0  0
    5.1962    0.0000    0.0000 N   0  0  0  0  0  0  0  0  0  0  0  0
    5.4041    0.9781    0.0000 C   0  0  0  0  0  0  0  0  0  0  0  0
    6.3986    1.0827    0.0000 N   0  0  0  0  0  0  0  0  0  0  0  0
    6.8053    0.1691    0.0000 N   0  0  0  0  0  0  0  0  0  0  0  0
    4.7349    1.7213    0.0000 C   0  0  0  0  0  0  0  0  0  0  0  0
    3.7568    1.5134    0.0000 C   0  0  0  0  0  0  0  0  0  0  0  0
    3.0877    2.2565    0.0000 N   0  0  0  0  0  0  0  0  0  0  0  0
    3.3967    3.2076    0.0000 C   0  0  0  0  0  0  0  0  0  0  0  0
    4.3748    3.4155    0.0000 C   0  0  0  0  0  0  0  0  0  0  0  0
    5.0440    2.6723    0.0000 C   0  0  0  0  0  0  0  0  0  0  0  0
    2.7275    3.9507    0.0000 C   0  0  0  0  0  0  0  0  0  0  0  0
    1.7765    4.2597    0.0000 F   0  0  0  0  0  0  0  0  0  0  0  0
    1.9844    3.2816    0.0000 F   0  0  0  0  0  0  0  0  0  0  0  0
    3.0366    4.9018    0.0000 F   0  0  0  0  0  0  0  0  0  0  0  0
    0.8660   -0.5000    0.0000 C   0  0  0  0  0  0  0  0  0  0  0  0
    0.8660   -1.5000    0.0000 C   0  0  0  0  0  0  0  0  0  0  0  0
    0.0000   -2.0000    0.0000 C   0  0  0  0  0  0  0  0  0  0  0  0
   -0.8660   -1.5000    0.0000 C   0  0  0  0  0  0  0  0  0  0  0  0
   -0.8660   -0.5000    0.0000 C   0  0  0  0  0  0  0  0  0  0  0  0
    0.0000    0.0000    0.0000 C   0  0  0  0  0  0  0  0  0  0  0  0
   -1.7321   -2.0000    0.0000 F   0  0  0  0  0  0  0  0  0  0  0  0
    0.0000   -3.0000    0.0000 F   0  0  0  0  0  0  0  0  0  0  0  0
  1  2  1  0  0  0  0
  1 23  1  0  0  0  0
  2  3  1  0  0  0  0
  3  4  1  0  0  0  0
  4  9  1  0  0  0  0
  4  5  2  0  0  0  0
  5  6  1  0  0  0  0
  6  7  2  0  0  0  0
  7  8  1  0  0  0  0
  8 12  2  0  0  0  0
  8  9  1  0  0  0  0
  9 10  1  0  0  0  0
 10 11  2  0  0  0  0
 10 13  1  0  0  0  0
 11 12  1  0  0  0  0
 13 18  1  0  0  0  0
 13 14  2  0  0  0  0
 14 15  1  0  0  0  0
 15 16  2  0  0  0  0
 16 17  1  0  0  0  0
 16 19  1  0  0  0  0
 17 18  2  0  0  0  0
 19 20  1  0  0  0  0
 19 21  1  0  0  0  0
 19 22  1  0  0  0  0
 23 28  1  0  0  0  0
 23 24  2  0  0  0  0
 24 25  1  0  0  0  0
 25 26  2  0  0  0  0
 25 30  1  0  0  0  0
 26 27  1  0  0  0  0
 26 29  1  0  0  0  0
 27 28  2  0  0  0  0
M  END
> <MW>
421.33

> <EC50>
0.2621

$$$$
MMV670944
 OpenBabel06241423362D

 32 35  0  0  0  0  0  0  0  0999 V2000
   -0.7138   -4.1723    0.0000 C   0  0  0  0  0  0  0  0  0  0  0  0
    0.1522   -4.6723    0.0000 N   0  0  0  0  0  0  0  0  0  0  0  0
    1.0182   -4.1723    0.0000 C   0  0  0  0  0  0  0  0  0  0  0  0
    1.0182   -3.1723    0.0000 C   0  0  0  0  0  0  0  0  0  0  0  0
    0.1522   -2.6723    0.0000 N   0  0  0  0  0  0  0  0  0  0  0  0
   -0.7138   -3.1723    0.0000 C   0  0  0  0  0  0  0  0  0  0  0  0
   -1.5798   -2.6723    0.0000 C   0  0  0  0  0  0  0  0  0  0  0  0
   -1.5798   -1.6723    0.0000 O   0  0  0  0  0  0  0  0  0  0  0  0
   -2.4459   -3.1723    0.0000 N   0  0  0  0  0  0  0  0  0  0  0  0
   -3.3119   -2.6723    0.0000 C   0  0  0  0  0  0  0  0  0  0  0  0
   -4.1779   -3.1723    0.0000 C   0  0  0  0  0  0  0  0  0  0  0  0
   -5.0440   -2.6723    0.0000 C   0  0  0  0  0  0  0  0  0  0  0  0
   -5.0440   -1.6723    0.0000 N   0  0  0  0  0  0  0  0  0  0  0  0
   -4.1779   -1.1723    0.0000 C   0  0  0  0  0  0  0  0  0  0  0  0
   -3.3119   -1.6723    0.0000 C   0  0  0  0  0  0  0  0  0  0  0  0
   -4.1779   -0.1723    0.0000 C   0  0  0  0  0  0  0  0  0  0  0  0
   -4.6779    0.6937    0.0000 F   0  0  0  0  0  0  0  0  0  0  0  0
   -5.1779   -0.1723    0.0000 F   0  0  0  0  0  0  0  0  0  0  0  0
   -3.3119    0.3277    0.0000 F   0  0  0  0  0  0  0  0  0  0  0  0
    0.3601   -1.6942    0.0000 C   0  0  0  0  0  0  0  0  0  0  0  0
    1.3546   -1.5897    0.0000 N   0  0  0  0  0  0  0  0  0  0  0  0
    1.7614   -2.5032    0.0000 N   0  0  0  0  0  0  0  0  0  0  0  0
   -0.3090   -0.9511    0.0000 C   0  0  0  0  0  0  0  0  0  0  0  0
   -1.2872   -1.1590    0.0000 C   0  0  0  0  0  0  0  0  0  0  0  0
   -1.9563   -0.4158    0.0000 C   0  0  0  0  0  0  0  0  0  0  0  0
   -1.6473    0.5352    0.0000 C   0  0  0  0  0  0  0  0  0  0  0  0
   -0.6691    0.7431    0.0000 C   0  0  0  0  0  0  0  0  0  0  0  0
    0.0000    0.0000    0.0000 C   0  0  0  0  0  0  0  0  0  0  0  0
   -2.3164    1.2784    0.0000 O   0  0  0  0  0  0  0  0  0  0  0  0
   -2.0074    2.2294    0.0000 C   0  0  0  0  0  0  0  0  0  0  0  0
   -1.0292    2.4373    0.0000 F   0  0  0  0  0  0  0  0  0  0  0  0
   -2.6765    2.9726    0.0000 F   0  0  0  0  0  0  0  0  0  0  0  0
  1  6  2  0  0  0  0
  1  2  1  0  0  0  0
  2  3  2  0  0  0  0
  3  4  1  0  0  0  0
  4 22  2  0  0  0  0
  4  5  1  0  0  0  0
  5  6  1  0  0  0  0
  5 20  1  0  0  0  0
  6  7  1  0  0  0  0
  7  8  2  0  0  0  0
  7  9  1  0  0  0  0
  9 10  1  0  0  0  0
 10 15  1  0  0  0  0
 10 11  2  0  0  0  0
 11 12  1  0  0  0  0
 12 13  2  0  0  0  0
 13 14  1  0  0  0  0
 14 15  2  0  0  0  0
 14 16  1  0  0  0  0
 16 17  1  0  0  0  0
 16 18  1  0  0  0  0
 16 19  1  0  0  0  0
 20 21  2  0  0  0  0
 20 23  1  0  0  0  0
 21 22  1  0  0  0  0
 23 28  1  0  0  0  0
 23 24  2  0  0  0  0
 24 25  1  0  0  0  0
 25 26  2  0  0  0  0
 26 27  1  0  0  0  0
 26 29  1  0  0  0  0
 27 28  2  0  0  0  0
 29 30  1  0  0  0  0
 30 31  1  0  0  0  0
 30 32  1  0  0  0  0
M  END
> <MW>
450.33

> <EC50>
0.1404

$$$$
MMV670945
 OpenBabel06241423362D

 30 33  0  0  0  0  0  0  0  0999 V2000
   -3.4641    1.0000    0.0000 C   0  0  0  0  0  0  0  0  0  0  0  0
   -4.3301    1.5000    0.0000 N   0  0  0  0  0  0  0  0  0  0  0  0
   -5.1962    1.0000    0.0000 C   0  0  0  0  0  0  0  0  0  0  0  0
   -5.1962    0.0000    0.0000 C   0  0  0  0  0  0  0  0  0  0  0  0
   -4.3301   -0.5000    0.0000 N   0  0  0  0  0  0  0  0  0  0  0  0
   -3.4641    0.0000    0.0000 C   0  0  0  0  0  0  0  0  0  0  0  0
   -4.5380   -1.4781    0.0000 C   0  0  0  0  0  0  0  0  0  0  0  0
   -5.5326   -1.5827    0.0000 N   0  0  0  0  0  0  0  0  0  0  0  0
   -5.9393   -0.6691    0.0000 N   0  0  0  0  0  0  0  0  0  0  0  0
   -3.8689   -2.2213    0.0000 C   0  0  0  0  0  0  0  0  0  0  0  0
   -2.8908   -2.0134    0.0000 C   0  0  0  0  0  0  0  0  0  0  0  0
   -2.2216   -2.7565    0.0000 C   0  0  0  0  0  0  0  0  0  0  0  0
   -2.5306   -3.7076    0.0000 C   0  0  0  0  0  0  0  0  0  0  0  0
   -3.5088   -3.9155    0.0000 C   0  0  0  0  0  0  0  0  0  0  0  0
   -4.1779   -3.1723    0.0000 C   0  0  0  0  0  0  0  0  0  0  0  0
   -1.8615   -4.4507    0.0000 O   0  0  0  0  0  0  0  0  0  0  0  0
   -2.1705   -5.4018    0.0000 C   0  0  0  0  0  0  0  0  0  0  0  0
   -3.1487   -5.6097    0.0000 F   0  0  0  0  0  0  0  0  0  0  0  0
   -1.5014   -6.1449    0.0000 F   0  0  0  0  0  0  0  0  0  0  0  0
   -2.5981    1.5000    0.0000 O   0  0  0  0  0  0  0  0  0  0  0  0
   -1.7321    1.0000    0.0000 C   0  0  0  0  0  0  0  0  0  0  0  0
   -0.8660    1.5000    0.0000 C   0  0  0  0  0  0  0  0  0  0  0  0
    0.0000    1.0000    0.0000 C   0  0  0  0  0  0  0  0  0  0  0  0
    0.8660    1.5000    0.0000 C   0  0  0  0  0  0  0  0  0  0  0  0
    1.7321    1.0000    0.0000 C   0  0  0  0  0  0  0  0  0  0  0  0
    1.7321    0.0000    0.0000 C   0  0  0  0  0  0  0  0  0  0  0  0
    0.8660   -0.5000    0.0000 C   0  0  0  0  0  0  0  0  0  0  0  0
    0.0000    0.0000    0.0000 C   0  0  0  0  0  0  0  0  0  0  0  0
    2.5981   -0.5000    0.0000 F   0  0  0  0  0  0  0  0  0  0  0  0
    2.5981    1.5000    0.0000 F   0  0  0  0  0  0  0  0  0  0  0  0
  1  6  2  0  0  0  0
  1  2  1  0  0  0  0
  1 20  1  0  0  0  0
  2  3  2  0  0  0  0
  3  4  1  0  0  0  0
  4  9  2  0  0  0  0
  4  5  1  0  0  0  0
  5  6  1  0  0  0  0
  5  7  1  0  0  0  0
  7  8  2  0  0  0  0
  7 10  1  0  0  0  0
  8  9  1  0  0  0  0
 10 15  1  0  0  0  0
 10 11  2  0  0  0  0
 11 12  1  0  0  0  0
 12 13  2  0  0  0  0
 13 14  1  0  0  0  0
 13 16  1  0  0  0  0
 14 15  2  0  0  0  0
 16 17  1  0  0  0  0
 17 18  1  0  0  0  0
 17 19  1  0  0  0  0
 20 21  1  0  0  0  0
 21 22  1  0  0  0  0
 22 23  1  0  0  0  0
 23 28  1  0  0  0  0
 23 24  2  0  0  0  0
 24 25  1  0  0  0  0
 25 26  2  0  0  0  0
 25 30  1  0  0  0  0
 26 27  1  0  0  0  0
 26 29  1  0  0  0  0
 27 28  2  0  0  0  0
M  END
> <MW>
418.35

> <EC50>
0.03382

$$$$
MMV670946
 OpenBabel06241423362D

 29 32  0  0  0  0  0  0  0  0999 V2000
    1.7321   -3.0000    0.0000 C   0  0  0  0  0  0  0  0  0  0  0  0
    1.7321   -4.0000    0.0000 N   0  0  0  0  0  0  0  0  0  0  0  0
    2.5981   -4.5000    0.0000 C   0  0  0  0  0  0  0  0  0  0  0  0
    3.4641   -4.0000    0.0000 C   0  0  0  0  0  0  0  0  0  0  0  0
    3.4641   -3.0000    0.0000 N   0  0  0  0  0  0  0  0  0  0  0  0
    2.5981   -2.5000    0.0000 C   0  0  0  0  0  0  0  0  0  0  0  0
    4.4152   -2.6910    0.0000 C   0  0  0  0  0  0  0  0  0  0  0  0
    5.0029   -3.5000    0.0000 N   0  0  0  0  0  0  0  0  0  0  0  0
    4.4152   -4.3090    0.0000 N   0  0  0  0  0  0  0  0  0  0  0  0
    4.7242   -1.7399    0.0000 C   0  0  0  0  0  0  0  0  0  0  0  0
    4.0550   -0.9968    0.0000 C   0  0  0  0  0  0  0  0  0  0  0  0
    4.3641   -0.0457    0.0000 C   0  0  0  0  0  0  0  0  0  0  0  0
    5.3422    0.1622    0.0000 C   0  0  0  0  0  0  0  0  0  0  0  0
    6.0113   -0.5810    0.0000 C   0  0  0  0  0  0  0  0  0  0  0  0
    5.7023   -1.5320    0.0000 C   0  0  0  0  0  0  0  0  0  0  0  0
    5.6512    1.1132    0.0000 O   0  0  0  0  0  0  0  0  0  0  0  0
    6.6294    1.3212    0.0000 C   0  0  0  0  0  0  0  0  0  0  0  0
    7.2985    0.5780    0.0000 F   0  0  0  0  0  0  0  0  0  0  0  0
    6.9384    2.2722    0.0000 F   0  0  0  0  0  0  0  0  0  0  0  0
    0.8660   -2.5000    0.0000 O   0  0  0  0  0  0  0  0  0  0  0  0
    0.8660   -1.5000    0.0000 C   0  0  0  0  0  0  0  0  0  0  0  0
    0.0000   -1.0000    0.0000 C   0  0  0  0  0  0  0  0  0  0  0  0
   -0.8660   -1.5000    0.0000 C   0  0  0  0  0  0  0  0  0  0  0  0
   -1.7321   -1.0000    0.0000 C   0  0  0  0  0  0  0  0  0  0  0  0
   -1.7321    0.0000    0.0000 C   0  0  0  0  0  0  0  0  0  0  0  0
   -0.8660    0.5000    0.0000 C   0  0  0  0  0  0  0  0  0  0  0  0
    0.0000    0.0000    0.0000 C   0  0  0  0  0  0  0  0  0  0  0  0
   -2.5981    0.5000    0.0000 F   0  0  0  0  0  0  0  0  0  0  0  0
   -2.5981   -1.5000    0.0000 F   0  0  0  0  0  0  0  0  0  0  0  0
  1  6  2  0  0  0  0
  1  2  1  0  0  0  0
  1 20  1  0  0  0  0
  2  3  2  0  0  0  0
  3  4  1  0  0  0  0
  4  9  2  0  0  0  0
  4  5  1  0  0  0  0
  5  6  1  0  0  0  0
  5  7  1  0  0  0  0
  7  8  2  0  0  0  0
  7 10  1  0  0  0  0
  8  9  1  0  0  0  0
 10 15  1  0  0  0  0
 10 11  2  0  0  0  0
 11 12  1  0  0  0  0
 12 13  2  0  0  0  0
 13 14  1  0  0  0  0
 13 16  1  0  0  0  0
 14 15  2  0  0  0  0
 16 17  1  0  0  0  0
 17 18  1  0  0  0  0
 17 19  1  0  0  0  0
 20 21  1  0  0  0  0
 21 22  1  0  0  0  0
 22 27  1  0  0  0  0
 22 23  2  0  0  0  0
 23 24  1  0  0  0  0
 24 25  2  0  0  0  0
 24 29  1  0  0  0  0
 25 26  1  0  0  0  0
 25 28  1  0  0  0  0
 26 27  2  0  0  0  0
M  END
> <MW>
404.32

> <EC50>
0.5207

$$$$
MMV670947
 OpenBabel06241423362D

 32 35  0  0  1  0  0  0  0  0999 V2000
    0.5733   -3.0134    0.0000 C   0  0  0  0  0  0  0  0  0  0  0  0
    1.4394   -3.5134    0.0000 N   0  0  0  0  0  0  0  0  0  0  0  0
    2.3054   -3.0134    0.0000 C   0  0  0  0  0  0  0  0  0  0  0  0
    2.3054   -2.0134    0.0000 C   0  0  0  0  0  0  0  0  0  0  0  0
    1.4394   -1.5134    0.0000 N   0  0  0  0  0  0  0  0  0  0  0  0
    0.5733   -2.0134    0.0000 C   0  0  0  0  0  0  0  0  0  0  0  0
   -0.2927   -1.5134    0.0000 O   0  0  0  0  0  0  0  0  0  0  0  0
   -0.2927   -0.5134    0.0000 C   0  0  0  0  0  0  0  0  0  0  0  0
   -1.1587   -0.0134    0.0000 C   0  0  3  0  0  0  0  0  0  0  0  0
   -2.0247   -0.5134    0.0000 C   0  0  0  0  0  0  0  0  0  0  0  0
   -2.8908   -0.0134    0.0000 C   0  0  0  0  0  0  0  0  0  0  0  0
   -3.7568   -0.5134    0.0000 C   0  0  0  0  0  0  0  0  0  0  0  0
   -3.7568   -1.5134    0.0000 C   0  0  0  0  0  0  0  0  0  0  0  0
   -2.8908   -2.0134    0.0000 C   0  0  0  0  0  0  0  0  0  0  0  0
   -2.0247   -1.5134    0.0000 C   0  0  0  0  0  0  0  0  0  0  0  0
   -4.6228   -2.0134    0.0000 F   0  0  0  0  0  0  0  0  0  0  0  0
   -4.6228   -0.0134    0.0000 F   0  0  0  0  0  0  0  0  0  0  0  0
   -1.1587    0.9866    0.0000 C   0  0  0  0  0  0  0  0  0  0  0  0
   -2.0247    1.4866    0.0000 O   0  0  0  0  0  0  0  0  0  0  0  0
    1.6473   -0.5352    0.0000 C   0  0  0  0  0  0  0  0  0  0  0  0
    2.6418   -0.4307    0.0000 N   0  0  0  0  0  0  0  0  0  0  0  0
    3.0485   -1.3443    0.0000 N   0  0  0  0  0  0  0  0  0  0  0  0
    0.9781    0.2079    0.0000 C   0  0  0  0  0  0  0  0  0  0  0  0
    1.2872    1.1590    0.0000 C   0  0  0  0  0  0  0  0  0  0  0  0
    0.6180    1.9021    0.0000 C   0  0  0  0  0  0  0  0  0  0  0  0
   -0.3601    1.6942    0.0000 C   0  0  0  0  0  0  0  0  0  0  0  0
   -0.6691    0.7431    0.0000 C   0  0  0  0  0  0  0  0  0  0  0  0
    0.0000    0.0000    0.0000 C   0  0  0  0  0  0  0  0  0  0  0  0
   -1.0292    2.4373    0.0000 O   0  0  0  0  0  0  0  0  0  0  0  0
   -0.7202    3.3884    0.0000 C   0  0  0  0  0  0  0  0  0  0  0  0
   -1.3894    4.1315    0.0000 F   0  0  0  0  0  0  0  0  0  0  0  0
    0.2579    3.5963    0.0000 F   0  0  0  0  0  0  0  0  0  0  0  0
  1  6  2  0  0  0  0
  1  2  1  0  0  0  0
  2  3  2  0  0  0  0
  3  4  1  0  0  0  0
  4 22  2  0  0  0  0
  4  5  1  0  0  0  0
  5  6  1  0  0  0  0
  5 20  1  0  0  0  0
  6  7  1  0  0  0  0
  7  8  1  0  0  0  0
  8  9  1  0  0  0  0
  9 10  1  0  0  0  0
  9 18  1  0  0  0  0
 10 15  1  0  0  0  0
 10 11  2  0  0  0  0
 11 12  1  0  0  0  0
 12 13  2  0  0  0  0
 12 17  1  0  0  0  0
 13 14  1  0  0  0  0
 13 16  1  0  0  0  0
 14 15  2  0  0  0  0
 18 19  1  0  0  0  0
 20 21  2  0  0  0  0
 20 23  1  0  0  0  0
 21 22  1  0  0  0  0
 23 28  1  0  0  0  0
 23 24  2  0  0  0  0
 24 25  1  0  0  0  0
 25 26  2  0  0  0  0
 26 27  1  0  0  0  0
 26 29  1  0  0  0  0
 27 28  2  0  0  0  0
 29 30  1  0  0  0  0
 30 31  1  0  0  0  0
 30 32  1  0  0  0  0
M  END
> <MW>
448.38

> <EC50>
0.02432

$$$$
MMV670949
 OpenBabel06241423362D

 29 32  0  0  0  0  0  0  0  0999 V2000
    1.7321   -3.0000    0.0000 C   0  0  0  0  0  0  0  0  0  0  0  0
    1.7321   -4.0000    0.0000 N   0  0  0  0  0  0  0  0  0  0  0  0
    2.5981   -4.5000    0.0000 C   0  0  0  0  0  0  0  0  0  0  0  0
    3.4641   -4.0000    0.0000 C   0  0  0  0  0  0  0  0  0  0  0  0
    3.4641   -3.0000    0.0000 N   0  0  0  0  0  0  0  0  0  0  0  0
    2.5981   -2.5000    0.0000 C   0  0  0  0  0  0  0  0  0  0  0  0
    4.4152   -2.6910    0.0000 C   0  0  0  0  0  0  0  0  0  0  0  0
    5.0029   -3.5000    0.0000 N   0  0  0  0  0  0  0  0  0  0  0  0
    4.4152   -4.3090    0.0000 N   0  0  0  0  0  0  0  0  0  0  0  0
    4.7242   -1.7399    0.0000 C   0  0  0  0  0  0  0  0  0  0  0  0
    4.0550   -0.9968    0.0000 C   0  0  0  0  0  0  0  0  0  0  0  0
    4.3641   -0.0457    0.0000 C   0  0  0  0  0  0  0  0  0  0  0  0
    5.3422    0.1622    0.0000 C   0  0  0  0  0  0  0  0  0  0  0  0
    6.0113   -0.5810    0.0000 C   0  0  0  0  0  0  0  0  0  0  0  0
    5.7023   -1.5320    0.0000 C   0  0  0  0  0  0  0  0  0  0  0  0
    5.6512    1.1132    0.0000 O   0  0  0  0  0  0  0  0  0  0  0  0
    6.6294    1.3212    0.0000 C   0  0  0  0  0  0  0  0  0  0  0  0
    7.2985    0.5780    0.0000 F   0  0  0  0  0  0  0  0  0  0  0  0
    6.9384    2.2722    0.0000 F   0  0  0  0  0  0  0  0  0  0  0  0
    0.8660   -2.5000    0.0000 N   0  0  0  0  0  0  0  0  0  0  0  0
    0.8660   -1.5000    0.0000 C   0  0  0  0  0  0  0  0  0  0  0  0
    0.0000   -1.0000    0.0000 C   0  0  0  0  0  0  0  0  0  0  0  0
   -0.8660   -1.5000    0.0000 C   0  0  0  0  0  0  0  0  0  0  0  0
   -1.7321   -1.0000    0.0000 C   0  0  0  0  0  0  0  0  0  0  0  0
   -1.7321    0.0000    0.0000 C   0  0  0  0  0  0  0  0  0  0  0  0
   -0.8660    0.5000    0.0000 C   0  0  0  0  0  0  0  0  0  0  0  0
    0.0000    0.0000    0.0000 C   0  0  0  0  0  0  0  0  0  0  0  0
   -2.5981    0.5000    0.0000 F   0  0  0  0  0  0  0  0  0  0  0  0
   -2.5981   -1.5000    0.0000 F   0  0  0  0  0  0  0  0  0  0  0  0
  1  6  2  0  0  0  0
  1  2  1  0  0  0  0
  1 20  1  0  0  0  0
  2  3  2  0  0  0  0
  3  4  1  0  0  0  0
  4  9  2  0  0  0  0
  4  5  1  0  0  0  0
  5  6  1  0  0  0  0
  5  7  1  0  0  0  0
  7  8  2  0  0  0  0
  7 10  1  0  0  0  0
  8  9  1  0  0  0  0
 10 15  1  0  0  0  0
 10 11  2  0  0  0  0
 11 12  1  0  0  0  0
 12 13  2  0  0  0  0
 13 14  1  0  0  0  0
 13 16  1  0  0  0  0
 14 15  2  0  0  0  0
 16 17  1  0  0  0  0
 17 18  1  0  0  0  0
 17 19  1  0  0  0  0
 20 21  1  0  0  0  0
 21 22  1  0  0  0  0
 22 27  1  0  0  0  0
 22 23  2  0  0  0  0
 23 24  1  0  0  0  0
 24 25  2  0  0  0  0
 24 29  1  0  0  0  0
 25 26  1  0  0  0  0
 25 28  1  0  0  0  0
 26 27  2  0  0  0  0
M  END
> <MW>
403.34

> <EC50>
10

$$$$
MMV671647
 OpenBabel06241423362D

 36 40  0  0  1  0  0  0  0  0999 V2000
    0.5733   -3.0134    0.0000 C   0  0  0  0  0  0  0  0  0  0  0  0
    1.4394   -3.5134    0.0000 N   0  0  0  0  0  0  0  0  0  0  0  0
    2.3054   -3.0134    0.0000 C   0  0  0  0  0  0  0  0  0  0  0  0
    2.3054   -2.0134    0.0000 C   0  0  0  0  0  0  0  0  0  0  0  0
    1.4394   -1.5134    0.0000 N   0  0  0  0  0  0  0  0  0  0  0  0
    0.5733   -2.0134    0.0000 C   0  0  0  0  0  0  0  0  0  0  0  0
   -0.2927   -1.5134    0.0000 O   0  0  0  0  0  0  0  0  0  0  0  0
   -1.1587   -2.0134    0.0000 C   0  0  0  0  0  0  0  0  0  0  0  0
   -2.0247   -1.5134    0.0000 C   0  0  3  0  0  0  0  0  0  0  0  0
   -2.0247   -0.5134    0.0000 C   0  0  0  0  0  0  0  0  0  0  0  0
   -2.8908   -0.0134    0.0000 C   0  0  0  0  0  0  0  0  0  0  0  0
   -2.8908    0.9866    0.0000 C   0  0  0  0  0  0  0  0  0  0  0  0
   -2.0247    1.4866    0.0000 C   0  0  0  0  0  0  0  0  0  0  0  0
   -1.1587    0.9866    0.0000 C   0  0  0  0  0  0  0  0  0  0  0  0
   -1.1587   -0.0134    0.0000 C   0  0  0  0  0  0  0  0  0  0  0  0
   -2.0247    2.4866    0.0000 F   0  0  0  0  0  0  0  0  0  0  0  0
   -3.7568    1.4866    0.0000 F   0  0  0  0  0  0  0  0  0  0  0  0
   -2.8908   -2.0134    0.0000 N   0  0  0  0  0  0  0  0  0  0  0  0
   -2.8908   -3.0134    0.0000 C   0  0  0  0  0  0  0  0  0  0  0  0
   -3.7568   -3.5134    0.0000 C   0  0  0  0  0  0  0  0  0  0  0  0
   -4.6228   -3.0134    0.0000 O   0  0  0  0  0  0  0  0  0  0  0  0
   -4.6228   -2.0134    0.0000 C   0  0  0  0  0  0  0  0  0  0  0  0
   -3.7568   -1.5134    0.0000 C   0  0  0  0  0  0  0  0  0  0  0  0
    1.6473   -0.5352    0.0000 C   0  0  0  0  0  0  0  0  0  0  0  0
    2.6418   -0.4307    0.0000 N   0  0  0  0  0  0  0  0  0  0  0  0
    3.0485   -1.3443    0.0000 N   0  0  0  0  0  0  0  0  0  0  0  0
    0.9781    0.2079    0.0000 C   0  0  0  0  0  0  0  0  0  0  0  0
    1.2872    1.1590    0.0000 C   0  0  0  0  0  0  0  0  0  0  0  0
    0.6180    1.9021    0.0000 C   0  0  0  0  0  0  0  0  0  0  0  0
   -0.3601    1.6942    0.0000 C   0  0  0  0  0  0  0  0  0  0  0  0
   -0.6691    0.7431    0.0000 C   0  0  0  0  0  0  0  0  0  0  0  0
    0.0000    0.0000    0.0000 C   0  0  0  0  0  0  0  0  0  0  0  0
   -1.0292    2.4373    0.0000 O   0  0  0  0  0  0  0  0  0  0  0  0
   -0.7202    3.3884    0.0000 C   0  0  0  0  0  0  0  0  0  0  0  0
   -1.3894    4.1315    0.0000 F   0  0  0  0  0  0  0  0  0  0  0  0
    0.2579    3.5963    0.0000 F   0  0  0  0  0  0  0  0  0  0  0  0
  1  6  2  0  0  0  0
  1  2  1  0  0  0  0
  2  3  2  0  0  0  0
  3  4  1  0  0  0  0
  4 26  2  0  0  0  0
  4  5  1  0  0  0  0
  5  6  1  0  0  0  0
  5 24  1  0  0  0  0
  6  7  1  0  0  0  0
  7  8  1  0  0  0  0
  8  9  1  0  0  0  0
  9 10  1  0  0  0  0
  9 18  1  0  0  0  0
 10 15  1  0  0  0  0
 10 11  2  0  0  0  0
 11 12  1  0  0  0  0
 12 13  2  0  0  0  0
 12 17  1  0  0  0  0
 13 14  1  0  0  0  0
 13 16  1  0  0  0  0
 14 15  2  0  0  0  0
 18 23  1  0  0  0  0
 18 19  1  0  0  0  0
 19 20  1  0  0  0  0
 20 21  1  0  0  0  0
 21 22  1  0  0  0  0
 22 23  1  0  0  0  0
 24 25  2  0  0  0  0
 24 27  1  0  0  0  0
 25 26  1  0  0  0  0
 27 32  1  0  0  0  0
 27 28  2  0  0  0  0
 28 29  1  0  0  0  0
 29 30  2  0  0  0  0
 30 31  1  0  0  0  0
 30 33  1  0  0  0  0
 31 32  2  0  0  0  0
 33 34  1  0  0  0  0
 34 35  1  0  0  0  0
 34 36  1  0  0  0  0
M  END
> <MW>
503.46

> <EC50>
0.6133

$$$$
MMV671648
 OpenBabel06241423362D

 30 33  0  0  0  0  0  0  0  0999 V2000
   -3.9703   -1.4680    0.0000 C   0  0  0  0  0  0  0  0  0  0  0  0
   -3.9703   -2.4680    0.0000 N   0  0  0  0  0  0  0  0  0  0  0  0
   -3.1042   -2.9680    0.0000 C   0  0  0  0  0  0  0  0  0  0  0  0
   -2.2382   -2.4680    0.0000 C   0  0  0  0  0  0  0  0  0  0  0  0
   -2.2382   -1.4680    0.0000 N   0  0  0  0  0  0  0  0  0  0  0  0
   -3.1042   -0.9680    0.0000 C   0  0  0  0  0  0  0  0  0  0  0  0
   -3.1042    0.0320    0.0000 O   0  0  0  0  0  0  0  0  0  0  0  0
   -3.9703    0.5320    0.0000 C   0  0  0  0  0  0  0  0  0  0  0  0
   -4.8363    0.0320    0.0000 C   0  0  0  0  0  0  0  0  0  0  0  0
   -5.7023    0.5320    0.0000 C   0  0  0  0  0  0  0  0  0  0  0  0
   -5.7023    1.5320    0.0000 C   0  0  0  0  0  0  0  0  0  0  0  0
   -4.8363    2.0320    0.0000 C   0  0  0  0  0  0  0  0  0  0  0  0
   -3.9703    1.5320    0.0000 C   0  0  0  0  0  0  0  0  0  0  0  0
   -6.5683    2.0320    0.0000 C   0  0  0  0  0  0  0  0  0  0  0  0
   -7.5683    2.0320    0.0000 C   0  0  0  0  0  0  0  0  0  0  0  0
   -7.0683    1.1660    0.0000 C   0  0  0  0  0  0  0  0  0  0  0  0
   -6.5683    3.0320    0.0000 C   0  0  0  0  0  0  0  0  0  0  0  0
   -1.2872   -1.1590    0.0000 C   0  0  0  0  0  0  0  0  0  0  0  0
   -0.6994   -1.9680    0.0000 N   0  0  0  0  0  0  0  0  0  0  0  0
   -1.2872   -2.7770    0.0000 N   0  0  0  0  0  0  0  0  0  0  0  0
   -0.9781   -0.2079    0.0000 C   0  0  0  0  0  0  0  0  0  0  0  0
   -1.6473    0.5352    0.0000 C   0  0  0  0  0  0  0  0  0  0  0  0
   -1.3383    1.4863    0.0000 C   0  0  0  0  0  0  0  0  0  0  0  0
   -0.3601    1.6942    0.0000 C   0  0  0  0  0  0  0  0  0  0  0  0
    0.3090    0.9511    0.0000 C   0  0  0  0  0  0  0  0  0  0  0  0
    0.0000    0.0000    0.0000 C   0  0  0  0  0  0  0  0  0  0  0  0
   -0.0511    2.6453    0.0000 O   0  0  0  0  0  0  0  0  0  0  0  0
    0.9271    2.8532    0.0000 C   0  0  0  0  0  0  0  0  0  0  0  0
    1.5962    2.1100    0.0000 F   0  0  0  0  0  0  0  0  0  0  0  0
    1.2361    3.8042    0.0000 F   0  0  0  0  0  0  0  0  0  0  0  0
  1  6  2  0  0  0  0
  1  2  1  0  0  0  0
  2  3  2  0  0  0  0
  3  4  1  0  0  0  0
  4 20  2  0  0  0  0
  4  5  1  0  0  0  0
  5  6  1  0  0  0  0
  5 18  1  0  0  0  0
  6  7  1  0  0  0  0
  7  8  1  0  0  0  0
  8 13  1  0  0  0  0
  8  9  2  0  0  0  0
  9 10  1  0  0  0  0
 10 11  2  0  0  0  0
 11 12  1  0  0  0  0
 11 14  1  0  0  0  0
 12 13  2  0  0  0  0
 14 15  1  0  0  0  0
 14 16  1  0  0  0  0
 14 17  1  0  0  0  0
 18 19  2  0  0  0  0
 18 21  1  0  0  0  0
 19 20  1  0  0  0  0
 21 26  1  0  0  0  0
 21 22  2  0  0  0  0
 22 23  1  0  0  0  0
 23 24  2  0  0  0  0
 24 25  1  0  0  0  0
 24 27  1  0  0  0  0
 25 26  2  0  0  0  0
 27 28  1  0  0  0  0
 28 29  1  0  0  0  0
 28 30  1  0  0  0  0
M  END
> <MW>
410.42

> <EC50>
0.738

$$$$
MMV671649
 OpenBabel06241423362D

 30 34  0  0  0  0  0  0  0  0999 V2000
   -3.9703   -1.4680    0.0000 C   0  0  0  0  0  0  0  0  0  0  0  0
   -3.9703   -2.4680    0.0000 N   0  0  0  0  0  0  0  0  0  0  0  0
   -3.1042   -2.9680    0.0000 C   0  0  0  0  0  0  0  0  0  0  0  0
   -2.2382   -2.4680    0.0000 C   0  0  0  0  0  0  0  0  0  0  0  0
   -2.2382   -1.4680    0.0000 N   0  0  0  0  0  0  0  0  0  0  0  0
   -3.1042   -0.9680    0.0000 C   0  0  0  0  0  0  0  0  0  0  0  0
   -3.1042    0.0320    0.0000 O   0  0  0  0  0  0  0  0  0  0  0  0
   -3.9703    0.5320    0.0000 C   0  0  0  0  0  0  0  0  0  0  0  0
   -4.8363    0.0320    0.0000 C   0  0  0  0  0  0  0  0  0  0  0  0
   -5.7023    0.5320    0.0000 C   0  0  0  0  0  0  0  0  0  0  0  0
   -5.7023    1.5320    0.0000 C   0  0  0  0  0  0  0  0  0  0  0  0
   -4.8363    2.0320    0.0000 C   0  0  0  0  0  0  0  0  0  0  0  0
   -3.9703    1.5320    0.0000 C   0  0  0  0  0  0  0  0  0  0  0  0
   -6.5683    2.0320    0.0000 C   0  0  0  0  0  0  0  0  0  0  0  0
   -7.4344    1.5320    0.0000 C   0  0  0  0  0  0  0  0  0  0  0  0
   -7.4344    0.5320    0.0000 C   0  0  0  0  0  0  0  0  0  0  0  0
   -6.5683    0.0320    0.0000 C   0  0  0  0  0  0  0  0  0  0  0  0
   -1.2872   -1.1590    0.0000 C   0  0  0  0  0  0  0  0  0  0  0  0
   -0.6994   -1.9680    0.0000 N   0  0  0  0  0  0  0  0  0  0  0  0
   -1.2872   -2.7770    0.0000 N   0  0  0  0  0  0  0  0  0  0  0  0
   -0.9781   -0.2079    0.0000 C   0  0  0  0  0  0  0  0  0  0  0  0
   -1.6473    0.5352    0.0000 C   0  0  0  0  0  0  0  0  0  0  0  0
   -1.3383    1.4863    0.0000 C   0  0  0  0  0  0  0  0  0  0  0  0
   -0.3601    1.6942    0.0000 C   0  0  0  0  0  0  0  0  0  0  0  0
    0.3090    0.9511    0.0000 C   0  0  0  0  0  0  0  0  0  0  0  0
    0.0000    0.0000    0.0000 C   0  0  0  0  0  0  0  0  0  0  0  0
   -0.0511    2.6453    0.0000 O   0  0  0  0  0  0  0  0  0  0  0  0
    0.9271    2.8532    0.0000 C   0  0  0  0  0  0  0  0  0  0  0  0
    1.5962    2.1100    0.0000 F   0  0  0  0  0  0  0  0  0  0  0  0
    1.2361    3.8042    0.0000 F   0  0  0  0  0  0  0  0  0  0  0  0
  1  6  2  0  0  0  0
  1  2  1  0  0  0  0
  2  3  2  0  0  0  0
  3  4  1  0  0  0  0
  4 20  2  0  0  0  0
  4  5  1  0  0  0  0
  5  6  1  0  0  0  0
  5 18  1  0  0  0  0
  6  7  1  0  0  0  0
  7  8  1  0  0  0  0
  8 13  1  0  0  0  0
  8  9  2  0  0  0  0
  9 10  1  0  0  0  0
 10 17  1  0  0  0  0
 10 11  2  0  0  0  0
 11 12  1  0  0  0  0
 11 14  1  0  0  0  0
 12 13  2  0  0  0  0
 14 15  1  0  0  0  0
 15 16  1  0  0  0  0
 16 17  1  0  0  0  0
 18 19  2  0  0  0  0
 18 21  1  0  0  0  0
 19 20  1  0  0  0  0
 21 26  1  0  0  0  0
 21 22  2  0  0  0  0
 22 23  1  0  0  0  0
 23 24  2  0  0  0  0
 24 25  1  0  0  0  0
 24 27  1  0  0  0  0
 25 26  2  0  0  0  0
 27 28  1  0  0  0  0
 28 29  1  0  0  0  0
 28 30  1  0  0  0  0
M  END
> <MW>
408.41

> <EC50>
2.581

$$$$
MMV671650
 OpenBabel06241423362D

 31 34  0  0  0  0  0  0  0  0999 V2000
    3.9703    1.4680    0.0000 C    0  0  0  0  0  0  0  0  0  0  0  0
    3.9703    2.4680    0.0000 N    0  0  0  0  0  0  0  0  0  0  0  0
    3.1042    2.9680    0.0000 C    0  0  0  0  0  0  0  0  0  0  0  0
    2.2382    2.4680    0.0000 C    0  0  0  0  0  0  0  0  0  0  0  0
    2.2382    1.4680    0.0000 N    0  0  0  0  0  0  0  0  0  0  0  0
    3.1042    0.9680    0.0000 C    0  0  0  0  0  0  0  0  0  0  0  0
    3.1042   -0.0320    0.0000 O    0  0  0  0  0  0  0  0  0  0  0  0
    3.9703   -0.5320    0.0000 C    0  0  0  0  0  0  0  0  0  0  0  0
    4.8363   -0.0320    0.0000 C    0  0  0  0  0  0  0  0  0  0  0  0
    5.7023   -0.5320    0.0000 C    0  0  0  0  0  0  0  0  0  0  0  0
    5.7023   -1.5320    0.0000 C    0  0  0  0  0  0  0  0  0  0  0  0
    4.8363   -2.0320    0.0000 C    0  0  0  0  0  0  0  0  0  0  0  0
    3.9703   -1.5320    0.0000 C    0  0  0  0  0  0  0  0  0  0  0  0
    6.5683   -2.0320    0.0000 Cl   0  0  0  0  0  0  0  0  0  0  0  0
    6.5683   -0.0320    0.0000 C    0  0  0  0  0  0  0  0  0  0  0  0
    7.0683    0.8340    0.0000 F    0  0  0  0  0  0  0  0  0  0  0  0
    6.0683    0.8340    0.0000 F    0  0  0  0  0  0  0  0  0  0  0  0
    7.4344   -0.5320    0.0000 F    0  0  0  0  0  0  0  0  0  0  0  0
    1.2872    1.1590    0.0000 C    0  0  0  0  0  0  0  0  0  0  0  0
    0.6994    1.9680    0.0000 N    0  0  0  0  0  0  0  0  0  0  0  0
    1.2872    2.7770    0.0000 N    0  0  0  0  0  0  0  0  0  0  0  0
    0.9781    0.2079    0.0000 C    0  0  0  0  0  0  0  0  0  0  0  0
    1.6473   -0.5352    0.0000 C    0  0  0  0  0  0  0  0  0  0  0  0
    1.3383   -1.4863    0.0000 C    0  0  0  0  0  0  0  0  0  0  0  0
    0.3601   -1.6942    0.0000 C    0  0  0  0  0  0  0  0  0  0  0  0
   -0.3090   -0.9511    0.0000 C    0  0  0  0  0  0  0  0  0  0  0  0
    0.0000    0.0000    0.0000 C    0  0  0  0  0  0  0  0  0  0  0  0
    0.0511   -2.6453    0.0000 O    0  0  0  0  0  0  0  0  0  0  0  0
   -0.9271   -2.8532    0.0000 C    0  0  0  0  0  0  0  0  0  0  0  0
   -1.5962   -2.1100    0.0000 F    0  0  0  0  0  0  0  0  0  0  0  0
   -1.2361   -3.8042    0.0000 F    0  0  0  0  0  0  0  0  0  0  0  0
  1  6  2  0  0  0  0
  1  2  1  0  0  0  0
  2  3  2  0  0  0  0
  3  4  1  0  0  0  0
  4 21  2  0  0  0  0
  4  5  1  0  0  0  0
  5  6  1  0  0  0  0
  5 19  1  0  0  0  0
  6  7  1  0  0  0  0
  7  8  1  0  0  0  0
  8 13  1  0  0  0  0
  8  9  2  0  0  0  0
  9 10  1  0  0  0  0
 10 11  2  0  0  0  0
 10 15  1  0  0  0  0
 11 12  1  0  0  0  0
 11 14  1  0  0  0  0
 12 13  2  0  0  0  0
 15 16  1  0  0  0  0
 15 17  1  0  0  0  0
 15 18  1  0  0  0  0
 19 20  2  0  0  0  0
 19 22  1  0  0  0  0
 20 21  1  0  0  0  0
 22 27  1  0  0  0  0
 22 23  2  0  0  0  0
 23 24  1  0  0  0  0
 24 25  2  0  0  0  0
 25 26  1  0  0  0  0
 25 28  1  0  0  0  0
 26 27  2  0  0  0  0
 28 29  1  0  0  0  0
 29 30  1  0  0  0  0
 29 31  1  0  0  0  0
M  END
> <MW>
456.76

> <EC50>
0.5973

$$$$
MMV671651
 OpenBabel06241423362D

 32 35  0  0  1  0  0  0  0  0999 V2000
    0.7138    4.1723    0.0000 C   0  0  0  0  0  0  0  0  0  0  0  0
   -0.1522    4.6723    0.0000 N   0  0  0  0  0  0  0  0  0  0  0  0
   -1.0182    4.1723    0.0000 C   0  0  0  0  0  0  0  0  0  0  0  0
   -1.0182    3.1723    0.0000 C   0  0  0  0  0  0  0  0  0  0  0  0
   -0.1522    2.6723    0.0000 N   0  0  0  0  0  0  0  0  0  0  0  0
    0.7138    3.1723    0.0000 C   0  0  0  0  0  0  0  0  0  0  0  0
    1.5798    2.6723    0.0000 O   0  0  0  0  0  0  0  0  0  0  0  0
    2.4459    3.1723    0.0000 C   0  0  0  0  0  0  0  0  0  0  0  0
    3.3119    2.6723    0.0000 C   0  0  1  0  0  0  0  0  0  0  0  0
    3.8119    1.8063    0.0000 H   0  0  0  0  0  0  0  0  0  0  0  0
    4.1779    3.1723    0.0000 C   0  0  0  0  0  0  0  0  0  0  0  0
    5.0440    2.6723    0.0000 C   0  0  0  0  0  0  0  0  0  0  0  0
    5.9100    3.1723    0.0000 C   0  0  0  0  0  0  0  0  0  0  0  0
    5.9100    4.1723    0.0000 C   0  0  0  0  0  0  0  0  0  0  0  0
    5.0440    4.6723    0.0000 C   0  0  0  0  0  0  0  0  0  0  0  0
    4.1779    4.1723    0.0000 C   0  0  0  0  0  0  0  0  0  0  0  0
    6.7760    4.6723    0.0000 F   0  0  0  0  0  0  0  0  0  0  0  0
    6.7760    2.6723    0.0000 F   0  0  0  0  0  0  0  0  0  0  0  0
    2.8119    1.8063    0.0000 N   0  0  0  0  0  0  0  0  0  0  0  0
   -0.3601    1.6942    0.0000 C   0  0  0  0  0  0  0  0  0  0  0  0
   -1.3546    1.5897    0.0000 N   0  0  0  0  0  0  0  0  0  0  0  0
   -1.7614    2.5032    0.0000 N   0  0  0  0  0  0  0  0  0  0  0  0
    0.3090    0.9511    0.0000 C   0  0  0  0  0  0  0  0  0  0  0  0
    1.2872    1.1590    0.0000 C   0  0  0  0  0  0  0  0  0  0  0  0
    1.9563    0.4158    0.0000 C   0  0  0  0  0  0  0  0  0  0  0  0
    1.6473   -0.5352    0.0000 C   0  0  0  0  0  0  0  0  0  0  0  0
    0.6691   -0.7431    0.0000 C   0  0  0  0  0  0  0  0  0  0  0  0
    0.0000    0.0000    0.0000 C   0  0  0  0  0  0  0  0  0  0  0  0
    2.3164   -1.2784    0.0000 O   0  0  0  0  0  0  0  0  0  0  0  0
    3.2946   -1.0705    0.0000 C   0  0  0  0  0  0  0  0  0  0  0  0
    3.9637   -1.8136    0.0000 F   0  0  0  0  0  0  0  0  0  0  0  0
    3.6036   -0.1194    0.0000 F   0  0  0  0  0  0  0  0  0  0  0  0
  1  6  2  0  0  0  0
  1  2  1  0  0  0  0
  2  3  2  0  0  0  0
  3  4  1  0  0  0  0
  4 22  2  0  0  0  0
  4  5  1  0  0  0  0
  5  6  1  0  0  0  0
  5 20  1  0  0  0  0
  6  7  1  0  0  0  0
  7  8  1  0  0  0  0
  8  9  1  0  0  0  0
  9 10  1  6  0  0  0
  9 11  1  0  0  0  0
  9 19  1  0  0  0  0
 11 16  1  0  0  0  0
 11 12  2  0  0  0  0
 12 13  1  0  0  0  0
 13 14  2  0  0  0  0
 13 18  1  0  0  0  0
 14 15  1  0  0  0  0
 14 17  1  0  0  0  0
 15 16  2  0  0  0  0
 20 21  2  0  0  0  0
 20 23  1  0  0  0  0
 21 22  1  0  0  0  0
 23 28  1  0  0  0  0
 23 24  2  0  0  0  0
 24 25  1  0  0  0  0
 25 26  2  0  0  0  0
 26 27  1  0  0  0  0
 26 29  1  0  0  0  0
 27 28  2  0  0  0  0
 29 30  1  0  0  0  0
 30 31  1  0  0  0  0
 30 32  1  0  0  0  0
M  END
> <MW>
433.36

> <EC50>
0.2785

$$$$
MMV671652
 OpenBabel06241423362D

 32 35  0  0  1  0  0  0  0  0999 V2000
   -3.9703   -1.4680    0.0000 C   0  0  0  0  0  0  0  0  0  0  0  0
   -3.9703   -2.4680    0.0000 N   0  0  0  0  0  0  0  0  0  0  0  0
   -3.1042   -2.9680    0.0000 C   0  0  0  0  0  0  0  0  0  0  0  0
   -2.2382   -2.4680    0.0000 C   0  0  0  0  0  0  0  0  0  0  0  0
   -2.2382   -1.4680    0.0000 N   0  0  0  0  0  0  0  0  0  0  0  0
   -3.1042   -0.9680    0.0000 C   0  0  0  0  0  0  0  0  0  0  0  0
   -3.1042    0.0320    0.0000 N   0  0  0  0  0  0  0  0  0  0  0  0
   -3.9703    0.5320    0.0000 C   0  0  2  0  0  0  0  0  0  0  0  0
   -3.4703    1.3980    0.0000 H   0  0  0  0  0  0  0  0  0  0  0  0
   -4.8363    1.0320    0.0000 C   0  0  0  0  0  0  0  0  0  0  0  0
   -5.7023    0.5320    0.0000 C   0  0  0  0  0  0  0  0  0  0  0  0
   -6.5683    1.0320    0.0000 C   0  0  0  0  0  0  0  0  0  0  0  0
   -6.5683    2.0320    0.0000 C   0  0  0  0  0  0  0  0  0  0  0  0
   -5.7023    2.5320    0.0000 C   0  0  0  0  0  0  0  0  0  0  0  0
   -4.8363    2.0320    0.0000 C   0  0  0  0  0  0  0  0  0  0  0  0
   -7.4344    2.5320    0.0000 F   0  0  0  0  0  0  0  0  0  0  0  0
   -7.4344    0.5320    0.0000 F   0  0  0  0  0  0  0  0  0  0  0  0
   -4.4703   -0.3340    0.0000 C   0  0  0  0  0  0  0  0  0  0  0  0
   -5.4703   -0.3340    0.0000 O   0  0  0  0  0  0  0  0  0  0  0  0
   -1.2872   -1.1590    0.0000 C   0  0  0  0  0  0  0  0  0  0  0  0
   -0.6994   -1.9680    0.0000 N   0  0  0  0  0  0  0  0  0  0  0  0
   -1.2872   -2.7770    0.0000 N   0  0  0  0  0  0  0  0  0  0  0  0
   -0.9781   -0.2079    0.0000 C   0  0  0  0  0  0  0  0  0  0  0  0
   -1.6473    0.5352    0.0000 C   0  0  0  0  0  0  0  0  0  0  0  0
   -1.3383    1.4863    0.0000 C   0  0  0  0  0  0  0  0  0  0  0  0
   -0.3601    1.6942    0.0000 C   0  0  0  0  0  0  0  0  0  0  0  0
    0.3090    0.9511    0.0000 C   0  0  0  0  0  0  0  0  0  0  0  0
    0.0000    0.0000    0.0000 C   0  0  0  0  0  0  0  0  0  0  0  0
   -0.0511    2.6453    0.0000 O   0  0  0  0  0  0  0  0  0  0  0  0
    0.9271    2.8532    0.0000 C   0  0  0  0  0  0  0  0  0  0  0  0
    1.5962    2.1100    0.0000 F   0  0  0  0  0  0  0  0  0  0  0  0
    1.2361    3.8042    0.0000 F   0  0  0  0  0  0  0  0  0  0  0  0
  1  6  2  0  0  0  0
  1  2  1  0  0  0  0
  2  3  2  0  0  0  0
  3  4  1  0  0  0  0
  4 22  2  0  0  0  0
  4  5  1  0  0  0  0
  5  6  1  0  0  0  0
  5 20  1  0  0  0  0
  6  7  1  0  0  0  0
  7  8  1  0  0  0  0
  8  9  1  6  0  0  0
  8 10  1  0  0  0  0
  8 18  1  0  0  0  0
 10 15  1  0  0  0  0
 10 11  2  0  0  0  0
 11 12  1  0  0  0  0
 12 13  2  0  0  0  0
 12 17  1  0  0  0  0
 13 14  1  0  0  0  0
 13 16  1  0  0  0  0
 14 15  2  0  0  0  0
 18 19  1  0  0  0  0
 20 21  2  0  0  0  0
 20 23  1  0  0  0  0
 21 22  1  0  0  0  0
 23 28  1  0  0  0  0
 23 24  2  0  0  0  0
 24 25  1  0  0  0  0
 25 26  2  0  0  0  0
 26 27  1  0  0  0  0
 26 29  1  0  0  0  0
 27 28  2  0  0  0  0
 29 30  1  0  0  0  0
 30 31  1  0  0  0  0
 30 32  1  0  0  0  0
M  END
> <MW>
433.36

> <EC50>
0.5697

$$$$
MMV671653
 OpenBabel06241423362D

 32 36  0  0  0  0  0  0  0  0999 V2000
    1.8749   -3.7951    0.0000 C   0  0  0  0  0  0  0  0  0  0  0  0
    2.8695   -3.6905    0.0000 N   0  0  0  0  0  0  0  0  0  0  0  0
    3.2762   -2.7770    0.0000 C   0  0  0  0  0  0  0  0  0  0  0  0
    2.6884   -1.9680    0.0000 C   0  0  0  0  0  0  0  0  0  0  0  0
    1.6939   -2.0725    0.0000 N   0  0  0  0  0  0  0  0  0  0  0  0
    1.2872   -2.9861    0.0000 C   0  0  0  0  0  0  0  0  0  0  0  0
    0.2926   -3.0906    0.0000 N   0  0  0  0  0  0  0  0  0  0  0  0
   -0.2074   -3.9566    0.0000 N   0  0  0  0  0  0  0  0  0  0  0  0
   -1.1855   -3.7487    0.0000 C   0  0  0  0  0  0  0  0  0  0  0  0
   -1.2900   -2.7542    0.0000 C   0  0  0  0  0  0  0  0  0  0  0  0
   -0.3765   -2.3474    0.0000 C   0  0  0  0  0  0  0  0  0  0  0  0
   -2.1561   -2.2542    0.0000 C   0  0  0  0  0  0  0  0  0  0  0  0
   -3.0221   -2.7542    0.0000 C   0  0  0  0  0  0  0  0  0  0  0  0
   -3.8881   -2.2542    0.0000 C   0  0  0  0  0  0  0  0  0  0  0  0
   -3.8881   -1.2542    0.0000 C   0  0  0  0  0  0  0  0  0  0  0  0
   -3.0221   -0.7542    0.0000 C   0  0  0  0  0  0  0  0  0  0  0  0
   -2.1561   -1.2542    0.0000 C   0  0  0  0  0  0  0  0  0  0  0  0
   -4.7541   -0.7542    0.0000 F   0  0  0  0  0  0  0  0  0  0  0  0
   -4.7541   -2.7542    0.0000 F   0  0  0  0  0  0  0  0  0  0  0  0
    1.2872   -1.1590    0.0000 C   0  0  0  0  0  0  0  0  0  0  0  0
    2.0303   -0.4898    0.0000 N   0  0  0  0  0  0  0  0  0  0  0  0
    2.8963   -0.9898    0.0000 N   0  0  0  0  0  0  0  0  0  0  0  0
    0.3090   -0.9511    0.0000 C   0  0  0  0  0  0  0  0  0  0  0  0
   -0.3601   -1.6942    0.0000 C   0  0  0  0  0  0  0  0  0  0  0  0
   -1.3383   -1.4863    0.0000 C   0  0  0  0  0  0  0  0  0  0  0  0
   -1.6473   -0.5352    0.0000 C   0  0  0  0  0  0  0  0  0  0  0  0
   -0.9781    0.2079    0.0000 C   0  0  0  0  0  0  0  0  0  0  0  0
    0.0000    0.0000    0.0000 C   0  0  0  0  0  0  0  0  0  0  0  0
   -2.6254   -0.3273    0.0000 O   0  0  0  0  0  0  0  0  0  0  0  0
   -2.9344    0.6237    0.0000 C   0  0  0  0  0  0  0  0  0  0  0  0
   -2.2653    1.3669    0.0000 F   0  0  0  0  0  0  0  0  0  0  0  0
   -3.9126    0.8316    0.0000 F   0  0  0  0  0  0  0  0  0  0  0  0
  1  6  2  0  0  0  0
  1  2  1  0  0  0  0
  2  3  2  0  0  0  0
  3  4  1  0  0  0  0
  4 22  2  0  0  0  0
  4  5  1  0  0  0  0
  5  6  1  0  0  0  0
  5 20  1  0  0  0  0
  6  7  1  0  0  0  0
  7 11  1  0  0  0  0
  7  8  1  0  0  0  0
  8  9  2  0  0  0  0
  9 10  1  0  0  0  0
 10 11  2  0  0  0  0
 10 12  1  0  0  0  0
 12 17  1  0  0  0  0
 12 13  2  0  0  0  0
 13 14  1  0  0  0  0
 14 15  2  0  0  0  0
 14 19  1  0  0  0  0
 15 16  1  0  0  0  0
 15 18  1  0  0  0  0
 16 17  2  0  0  0  0
 20 21  2  0  0  0  0
 20 23  1  0  0  0  0
 21 22  1  0  0  0  0
 23 28  1  0  0  0  0
 23 24  2  0  0  0  0
 24 25  1  0  0  0  0
 25 26  2  0  0  0  0
 26 27  1  0  0  0  0
 26 29  1  0  0  0  0
 27 28  2  0  0  0  0
 29 30  1  0  0  0  0
 30 31  1  0  0  0  0
 30 32  1  0  0  0  0
M  END
> <MW>
440.36

> <EC50>
6.721

$$$$
MMV671654
 OpenBabel06241423362D

 30 33  0  0  0  0  0  0  0  0999 V2000
    0.7138    4.1723    0.0000 C    0  0  0  0  0  0  0  0  0  0  0  0
   -0.1522    4.6723    0.0000 N    0  0  0  0  0  0  0  0  0  0  0  0
   -1.0182    4.1723    0.0000 C    0  0  0  0  0  0  0  0  0  0  0  0
   -1.0182    3.1723    0.0000 C    0  0  0  0  0  0  0  0  0  0  0  0
   -0.1522    2.6723    0.0000 N    0  0  0  0  0  0  0  0  0  0  0  0
    0.7138    3.1723    0.0000 C    0  0  0  0  0  0  0  0  0  0  0  0
    1.5798    2.6723    0.0000 C    0  0  0  0  0  0  0  0  0  0  0  0
    1.5798    1.6723    0.0000 O    0  0  0  0  0  0  0  0  0  0  0  0
    2.4459    3.1723    0.0000 N    0  0  0  0  0  0  0  0  0  0  0  0
    3.3119    2.6723    0.0000 C    0  0  0  0  0  0  0  0  0  0  0  0
    4.1779    3.1723    0.0000 C    0  0  0  0  0  0  0  0  0  0  0  0
    5.0440    2.6723    0.0000 C    0  0  0  0  0  0  0  0  0  0  0  0
    5.0440    1.6723    0.0000 C    0  0  0  0  0  0  0  0  0  0  0  0
    4.1779    1.1723    0.0000 C    0  0  0  0  0  0  0  0  0  0  0  0
    3.3119    1.6723    0.0000 C    0  0  0  0  0  0  0  0  0  0  0  0
    2.4459    1.1723    0.0000 Cl   0  0  0  0  0  0  0  0  0  0  0  0
    5.9100    1.1723    0.0000 F    0  0  0  0  0  0  0  0  0  0  0  0
   -0.3601    1.6942    0.0000 C    0  0  0  0  0  0  0  0  0  0  0  0
   -1.3546    1.5897    0.0000 N    0  0  0  0  0  0  0  0  0  0  0  0
   -1.7614    2.5032    0.0000 N    0  0  0  0  0  0  0  0  0  0  0  0
    0.3090    0.9511    0.0000 C    0  0  0  0  0  0  0  0  0  0  0  0
    1.2872    1.1590    0.0000 C    0  0  0  0  0  0  0  0  0  0  0  0
    1.9563    0.4158    0.0000 C    0  0  0  0  0  0  0  0  0  0  0  0
    1.6473   -0.5352    0.0000 C    0  0  0  0  0  0  0  0  0  0  0  0
    0.6691   -0.7431    0.0000 C    0  0  0  0  0  0  0  0  0  0  0  0
    0.0000    0.0000    0.0000 C    0  0  0  0  0  0  0  0  0  0  0  0
    2.3164   -1.2784    0.0000 O    0  0  0  0  0  0  0  0  0  0  0  0
    2.0074   -2.2294    0.0000 C    0  0  0  0  0  0  0  0  0  0  0  0
    1.0292   -2.4373    0.0000 F    0  0  0  0  0  0  0  0  0  0  0  0
    2.6765   -2.9726    0.0000 F    0  0  0  0  0  0  0  0  0  0  0  0
  1  6  2  0  0  0  0
  1  2  1  0  0  0  0
  2  3  2  0  0  0  0
  3  4  1  0  0  0  0
  4 20  2  0  0  0  0
  4  5  1  0  0  0  0
  5  6  1  0  0  0  0
  5 18  1  0  0  0  0
  6  7  1  0  0  0  0
  7  8  2  0  0  0  0
  7  9  1  0  0  0  0
  9 10  1  0  0  0  0
 10 15  1  0  0  0  0
 10 11  2  0  0  0  0
 11 12  1  0  0  0  0
 12 13  2  0  0  0  0
 13 14  1  0  0  0  0
 13 17  1  0  0  0  0
 14 15  2  0  0  0  0
 15 16  1  0  0  0  0
 18 19  2  0  0  0  0
 18 21  1  0  0  0  0
 19 20  1  0  0  0  0
 21 26  1  0  0  0  0
 21 22  2  0  0  0  0
 22 23  1  0  0  0  0
 23 24  2  0  0  0  0
 24 25  1  0  0  0  0
 24 27  1  0  0  0  0
 25 26  2  0  0  0  0
 27 28  1  0  0  0  0
 28 29  1  0  0  0  0
 28 30  1  0  0  0  0
M  END
> <MW>
433.78

> <EC50>
5.576

$$$$
MMV671655
 OpenBabel06241423362D

 28 31  0  0  0  0  0  0  0  0999 V2000
    0.0000   -2.0000    0.0000 C   0  0  0  0  0  0  0  0  0  0  0  0
    0.0000   -3.0000    0.0000 N   0  0  0  0  0  0  0  0  0  0  0  0
    0.8660   -3.5000    0.0000 C   0  0  0  0  0  0  0  0  0  0  0  0
    1.7321   -3.0000    0.0000 C   0  0  0  0  0  0  0  0  0  0  0  0
    1.7321   -2.0000    0.0000 N   0  0  0  0  0  0  0  0  0  0  0  0
    0.8660   -1.5000    0.0000 C   0  0  0  0  0  0  0  0  0  0  0  0
    2.6831   -1.6910    0.0000 C   0  0  0  0  0  0  0  0  0  0  0  0
    3.2709   -2.5000    0.0000 N   0  0  0  0  0  0  0  0  0  0  0  0
    2.6831   -3.3090    0.0000 N   0  0  0  0  0  0  0  0  0  0  0  0
    2.9921   -0.7399    0.0000 C   0  0  0  0  0  0  0  0  0  0  0  0
    2.3230    0.0032    0.0000 C   0  0  0  0  0  0  0  0  0  0  0  0
    2.6320    0.9543    0.0000 C   0  0  0  0  0  0  0  0  0  0  0  0
    3.6102    1.1622    0.0000 C   0  0  0  0  0  0  0  0  0  0  0  0
    4.2793    0.4190    0.0000 C   0  0  0  0  0  0  0  0  0  0  0  0
    3.9703   -0.5320    0.0000 C   0  0  0  0  0  0  0  0  0  0  0  0
    3.9192    2.1132    0.0000 O   0  0  0  0  0  0  0  0  0  0  0  0
    4.8973    2.3212    0.0000 C   0  0  0  0  0  0  0  0  0  0  0  0
    5.5665    1.5780    0.0000 F   0  0  0  0  0  0  0  0  0  0  0  0
    5.2063    3.2722    0.0000 F   0  0  0  0  0  0  0  0  0  0  0  0
   -0.8660   -1.5000    0.0000 N   0  0  0  0  0  0  0  0  0  0  0  0
   -0.8660   -0.5000    0.0000 C   0  0  0  0  0  0  0  0  0  0  0  0
   -1.7321    0.0000    0.0000 C   0  0  0  0  0  0  0  0  0  0  0  0
   -1.7321    1.0000    0.0000 C   0  0  0  0  0  0  0  0  0  0  0  0
   -0.8660    1.5000    0.0000 C   0  0  0  0  0  0  0  0  0  0  0  0
    0.0000    1.0000    0.0000 C   0  0  0  0  0  0  0  0  0  0  0  0
    0.0000    0.0000    0.0000 C   0  0  0  0  0  0  0  0  0  0  0  0
    0.8660    1.5000    0.0000 F   0  0  0  0  0  0  0  0  0  0  0  0
   -0.8660    2.5000    0.0000 F   0  0  0  0  0  0  0  0  0  0  0  0
  1  6  2  0  0  0  0
  1  2  1  0  0  0  0
  1 20  1  0  0  0  0
  2  3  2  0  0  0  0
  3  4  1  0  0  0  0
  4  9  2  0  0  0  0
  4  5  1  0  0  0  0
  5  6  1  0  0  0  0
  5  7  1  0  0  0  0
  7  8  2  0  0  0  0
  7 10  1  0  0  0  0
  8  9  1  0  0  0  0
 10 15  1  0  0  0  0
 10 11  2  0  0  0  0
 11 12  1  0  0  0  0
 12 13  2  0  0  0  0
 13 14  1  0  0  0  0
 13 16  1  0  0  0  0
 14 15  2  0  0  0  0
 16 17  1  0  0  0  0
 17 18  1  0  0  0  0
 17 19  1  0  0  0  0
 20 21  1  0  0  0  0
 21 26  1  0  0  0  0
 21 22  2  0  0  0  0
 22 23  1  0  0  0  0
 23 24  2  0  0  0  0
 24 25  1  0  0  0  0
 24 28  1  0  0  0  0
 25 26  2  0  0  0  0
 25 27  1  0  0  0  0
M  END
> <MW>
389.31

> <EC50>
10

$$$$
MMV671676
 OpenBabel06241423362D

 31 34  0  0  0  0  0  0  0  0999 V2000
    3.3119   -2.6723    0.0000 C    0  0  0  0  0  0  0  0  0  0  0  0
    3.3119   -1.6723    0.0000 C    0  0  0  0  0  0  0  0  0  0  0  0
    4.1779   -1.1723    0.0000 C    0  0  0  0  0  0  0  0  0  0  0  0
    5.0440   -1.6723    0.0000 C    0  0  0  0  0  0  0  0  0  0  0  0
    5.0440   -2.6723    0.0000 C    0  0  0  0  0  0  0  0  0  0  0  0
    4.1779   -3.1723    0.0000 C    0  0  0  0  0  0  0  0  0  0  0  0
    4.1779   -4.1723    0.0000 Cl   0  0  0  0  0  0  0  0  0  0  0  0
    4.1779   -0.1723    0.0000 Cl   0  0  0  0  0  0  0  0  0  0  0  0
    2.4459   -1.1723    0.0000 C    0  0  0  0  0  0  0  0  0  0  0  0
    1.5798   -1.6723    0.0000 N    0  0  0  0  0  0  0  0  0  0  0  0
    1.5798   -2.6723    0.0000 C    0  0  0  0  0  0  0  0  0  0  0  0
    0.7138   -3.1723    0.0000 C    0  0  0  0  0  0  0  0  0  0  0  0
    0.7138   -4.1723    0.0000 C    0  0  0  0  0  0  0  0  0  0  0  0
   -0.1522   -4.6723    0.0000 N    0  0  0  0  0  0  0  0  0  0  0  0
   -1.0182   -4.1723    0.0000 C    0  0  0  0  0  0  0  0  0  0  0  0
   -1.0182   -3.1723    0.0000 C    0  0  0  0  0  0  0  0  0  0  0  0
   -0.1522   -2.6723    0.0000 N    0  0  0  0  0  0  0  0  0  0  0  0
   -0.3601   -1.6942    0.0000 C    0  0  0  0  0  0  0  0  0  0  0  0
   -1.3546   -1.5897    0.0000 N    0  0  0  0  0  0  0  0  0  0  0  0
   -1.7614   -2.5032    0.0000 N    0  0  0  0  0  0  0  0  0  0  0  0
    0.3090   -0.9511    0.0000 C    0  0  0  0  0  0  0  0  0  0  0  0
    1.2872   -1.1590    0.0000 C    0  0  0  0  0  0  0  0  0  0  0  0
    1.9563   -0.4158    0.0000 C    0  0  0  0  0  0  0  0  0  0  0  0
    1.6473    0.5352    0.0000 C    0  0  0  0  0  0  0  0  0  0  0  0
    0.6691    0.7431    0.0000 C    0  0  0  0  0  0  0  0  0  0  0  0
    0.0000    0.0000    0.0000 C    0  0  0  0  0  0  0  0  0  0  0  0
    2.3164    1.2784    0.0000 O    0  0  0  0  0  0  0  0  0  0  0  0
    2.0074    2.2294    0.0000 C    0  0  0  0  0  0  0  0  0  0  0  0
    1.0292    2.4373    0.0000 F    0  0  0  0  0  0  0  0  0  0  0  0
    2.6765    2.9726    0.0000 F    0  0  0  0  0  0  0  0  0  0  0  0
    2.4459   -3.1723    0.0000 O    0  0  0  0  0  0  0  0  0  0  0  0
  1  6  1  0  0  0  0
  1  2  2  0  0  0  0
  2  3  1  0  0  0  0
  2  9  1  0  0  0  0
  3  4  2  0  0  0  0
  3  8  1  0  0  0  0
  4  5  1  0  0  0  0
  5  6  2  0  0  0  0
  6  7  1  0  0  0  0
  9 10  1  0  0  0  0
 10 11  1  0  0  0  0
 11 12  1  0  0  0  0
 11 31  2  0  0  0  0
 12 17  1  0  0  0  0
 12 13  2  0  0  0  0
 13 14  1  0  0  0  0
 14 15  2  0  0  0  0
 15 16  1  0  0  0  0
 16 20  2  0  0  0  0
 16 17  1  0  0  0  0
 17 18  1  0  0  0  0
 18 19  2  0  0  0  0
 18 21  1  0  0  0  0
 19 20  1  0  0  0  0
 21 26  1  0  0  0  0
 21 22  2  0  0  0  0
 22 23  1  0  0  0  0
 23 24  2  0  0  0  0
 24 25  1  0  0  0  0
 24 27  1  0  0  0  0
 25 26  2  0  0  0  0
 27 28  1  0  0  0  0
 28 29  1  0  0  0  0
 28 30  1  0  0  0  0
M  END
> <MW>
464.26

> <EC50>
0.3321

$$$$
MMV671677
 OpenBabel06241423362D

 34 37  0  0  0  0  0  0  0  0999 V2000
   -4.1779    4.1723    0.0000 C    0  0  0  0  0  0  0  0  0  0  0  0
   -4.1779    3.1723    0.0000 C    0  0  0  0  0  0  0  0  0  0  0  0
   -5.0440    2.6723    0.0000 C    0  0  0  0  0  0  0  0  0  0  0  0
   -5.9100    3.1723    0.0000 C    0  0  0  0  0  0  0  0  0  0  0  0
   -5.9100    4.1723    0.0000 C    0  0  0  0  0  0  0  0  0  0  0  0
   -5.0440    4.6723    0.0000 C    0  0  0  0  0  0  0  0  0  0  0  0
   -6.7760    2.6723    0.0000 C    0  0  0  0  0  0  0  0  0  0  0  0
   -7.2760    1.8063    0.0000 F    0  0  0  0  0  0  0  0  0  0  0  0
   -6.2760    1.8063    0.0000 F    0  0  0  0  0  0  0  0  0  0  0  0
   -7.6420    3.1723    0.0000 F    0  0  0  0  0  0  0  0  0  0  0  0
   -5.0440    1.6723    0.0000 Cl   0  0  0  0  0  0  0  0  0  0  0  0
   -3.3119    2.6723    0.0000 C    0  0  0  0  0  0  0  0  0  0  0  0
   -2.4459    3.1723    0.0000 N    0  0  0  0  0  0  0  0  0  0  0  0
   -1.5798    2.6723    0.0000 C    0  0  0  0  0  0  0  0  0  0  0  0
   -0.7138    3.1723    0.0000 C    0  0  0  0  0  0  0  0  0  0  0  0
   -0.7138    4.1723    0.0000 C    0  0  0  0  0  0  0  0  0  0  0  0
    0.1522    4.6723    0.0000 N    0  0  0  0  0  0  0  0  0  0  0  0
    1.0182    4.1723    0.0000 C    0  0  0  0  0  0  0  0  0  0  0  0
    1.0182    3.1723    0.0000 C    0  0  0  0  0  0  0  0  0  0  0  0
    0.1522    2.6723    0.0000 N    0  0  0  0  0  0  0  0  0  0  0  0
    0.3601    1.6942    0.0000 C    0  0  0  0  0  0  0  0  0  0  0  0
    1.3546    1.5897    0.0000 N    0  0  0  0  0  0  0  0  0  0  0  0
    1.7614    2.5032    0.0000 N    0  0  0  0  0  0  0  0  0  0  0  0
   -0.3090    0.9511    0.0000 C    0  0  0  0  0  0  0  0  0  0  0  0
   -1.2872    1.1590    0.0000 C    0  0  0  0  0  0  0  0  0  0  0  0
   -1.9563    0.4158    0.0000 C    0  0  0  0  0  0  0  0  0  0  0  0
   -1.6473   -0.5352    0.0000 C    0  0  0  0  0  0  0  0  0  0  0  0
   -0.6691   -0.7431    0.0000 C    0  0  0  0  0  0  0  0  0  0  0  0
    0.0000    0.0000    0.0000 C    0  0  0  0  0  0  0  0  0  0  0  0
   -2.3164   -1.2784    0.0000 O    0  0  0  0  0  0  0  0  0  0  0  0
   -2.0074   -2.2294    0.0000 C    0  0  0  0  0  0  0  0  0  0  0  0
   -1.0292   -2.4373    0.0000 F    0  0  0  0  0  0  0  0  0  0  0  0
   -2.6765   -2.9726    0.0000 F    0  0  0  0  0  0  0  0  0  0  0  0
   -1.5798    1.6723    0.0000 O    0  0  0  0  0  0  0  0  0  0  0  0
  1  6  1  0  0  0  0
  1  2  2  0  0  0  0
  2  3  1  0  0  0  0
  2 12  1  0  0  0  0
  3  4  2  0  0  0  0
  3 11  1  0  0  0  0
  4  5  1  0  0  0  0
  4  7  1  0  0  0  0
  5  6  2  0  0  0  0
  7  8  1  0  0  0  0
  7  9  1  0  0  0  0
  7 10  1  0  0  0  0
 12 13  1  0  0  0  0
 13 14  1  0  0  0  0
 14 15  1  0  0  0  0
 14 34  2  0  0  0  0
 15 20  1  0  0  0  0
 15 16  2  0  0  0  0
 16 17  1  0  0  0  0
 17 18  2  0  0  0  0
 18 19  1  0  0  0  0
 19 23  2  0  0  0  0
 19 20  1  0  0  0  0
 20 21  1  0  0  0  0
 21 22  2  0  0  0  0
 21 24  1  0  0  0  0
 22 23  1  0  0  0  0
 24 29  1  0  0  0  0
 24 25  2  0  0  0  0
 25 26  1  0  0  0  0
 26 27  2  0  0  0  0
 27 28  1  0  0  0  0
 27 30  1  0  0  0  0
 28 29  2  0  0  0  0
 30 31  1  0  0  0  0
 31 32  1  0  0  0  0
 31 33  1  0  0  0  0
M  END
> <MW>
497.81

> <EC50>
0.309

$$$$
MMV671678
 OpenBabel06241423362D

 33 37  0  0  0  0  0  0  0  0999 V2000
   -3.3223   -2.6230    0.0000 C   0  0  0  0  0  0  0  0  0  0  0  0
   -3.0133   -3.5741    0.0000 N   0  0  0  0  0  0  0  0  0  0  0  0
   -2.0352   -3.7820    0.0000 C   0  0  0  0  0  0  0  0  0  0  0  0
   -1.3660   -3.0388    0.0000 C   0  0  0  0  0  0  0  0  0  0  0  0
   -1.6750   -2.0878    0.0000 N   0  0  0  0  0  0  0  0  0  0  0  0
   -2.6532   -1.8799    0.0000 C   0  0  0  0  0  0  0  0  0  0  0  0
   -2.9622   -0.9288    0.0000 N   0  0  0  0  0  0  0  0  0  0  0  0
   -2.3744   -0.1198    0.0000 C   0  0  0  0  0  0  0  0  0  0  0  0
   -2.9622    0.6892    0.0000 C   0  0  0  0  0  0  0  0  0  0  0  0
   -3.9133    0.3802    0.0000 N   0  0  0  0  0  0  0  0  0  0  0  0
   -3.9133   -0.6198    0.0000 C   0  0  0  0  0  0  0  0  0  0  0  0
   -4.7223   -1.2076    0.0000 C   0  0  0  0  0  0  0  0  0  0  0  0
   -5.6358   -0.8008    0.0000 C   0  0  0  0  0  0  0  0  0  0  0  0
   -5.7404    0.1937    0.0000 C   0  0  0  0  0  0  0  0  0  0  0  0
   -6.6539    0.6004    0.0000 C   0  0  0  0  0  0  0  0  0  0  0  0
   -7.4629    0.0126    0.0000 C   0  0  0  0  0  0  0  0  0  0  0  0
   -7.3584   -0.9819    0.0000 C   0  0  0  0  0  0  0  0  0  0  0  0
   -6.4448   -1.3886    0.0000 C   0  0  0  0  0  0  0  0  0  0  0  0
   -8.3765    0.4194    0.0000 F   0  0  0  0  0  0  0  0  0  0  0  0
   -6.7584    1.5949    0.0000 F   0  0  0  0  0  0  0  0  0  0  0  0
   -0.8660   -1.5000    0.0000 C   0  0  0  0  0  0  0  0  0  0  0  0
   -0.0570   -2.0878    0.0000 N   0  0  0  0  0  0  0  0  0  0  0  0
   -0.3660   -3.0388    0.0000 N   0  0  0  0  0  0  0  0  0  0  0  0
   -0.8660   -0.5000    0.0000 C   0  0  0  0  0  0  0  0  0  0  0  0
   -1.7321    0.0000    0.0000 C   0  0  0  0  0  0  0  0  0  0  0  0
   -1.7321    1.0000    0.0000 C   0  0  0  0  0  0  0  0  0  0  0  0
   -0.8660    1.5000    0.0000 C   0  0  0  0  0  0  0  0  0  0  0  0
    0.0000    1.0000    0.0000 C   0  0  0  0  0  0  0  0  0  0  0  0
    0.0000    0.0000    0.0000 C   0  0  0  0  0  0  0  0  0  0  0  0
   -0.8660    2.5000    0.0000 O   0  0  0  0  0  0  0  0  0  0  0  0
    0.0000    3.0000    0.0000 C   0  0  0  0  0  0  0  0  0  0  0  0
    0.8660    2.5000    0.0000 F   0  0  0  0  0  0  0  0  0  0  0  0
    0.0000    4.0000    0.0000 F   0  0  0  0  0  0  0  0  0  0  0  0
  1  6  2  0  0  0  0
  1  2  1  0  0  0  0
  2  3  2  0  0  0  0
  3  4  1  0  0  0  0
  4 23  2  0  0  0  0
  4  5  1  0  0  0  0
  5  6  1  0  0  0  0
  5 21  1  0  0  0  0
  6  7  1  0  0  0  0
  7 11  1  0  0  0  0
  7  8  1  0  0  0  0
  8  9  2  0  0  0  0
  9 10  1  0  0  0  0
 10 11  2  0  0  0  0
 11 12  1  0  0  0  0
 12 13  1  0  0  0  0
 13 18  1  0  0  0  0
 13 14  2  0  0  0  0
 14 15  1  0  0  0  0
 15 16  2  0  0  0  0
 15 20  1  0  0  0  0
 16 17  1  0  0  0  0
 16 19  1  0  0  0  0
 17 18  2  0  0  0  0
 21 22  2  0  0  0  0
 21 24  1  0  0  0  0
 22 23  1  0  0  0  0
 24 29  1  0  0  0  0
 24 25  2  0  0  0  0
 25 26  1  0  0  0  0
 26 27  2  0  0  0  0
 27 28  1  0  0  0  0
 27 30  1  0  0  0  0
 28 29  2  0  0  0  0
 30 31  1  0  0  0  0
 31 32  1  0  0  0  0
 31 33  1  0  0  0  0
M  END
> <MW>
454.39

> <EC50>
10

$$$$
MMV671679
 OpenBabel06241423362D

 29 32  0  0  0  0  0  0  0  0999 V2000
    5.1694   -2.3283    0.0000 C   0  0  0  0  0  0  0  0  0  0  0  0
    6.1475   -2.1204    0.0000 N   0  0  0  0  0  0  0  0  0  0  0  0
    6.4565   -1.1694    0.0000 C   0  0  0  0  0  0  0  0  0  0  0  0
    5.7874   -0.4262    0.0000 C   0  0  0  0  0  0  0  0  0  0  0  0
    4.8092   -0.6341    0.0000 N   0  0  0  0  0  0  0  0  0  0  0  0
    4.5002   -1.5852    0.0000 C   0  0  0  0  0  0  0  0  0  0  0  0
    3.5221   -1.7931    0.0000 O   0  0  0  0  0  0  0  0  0  0  0  0
    3.2131   -2.7442    0.0000 C   0  0  0  0  0  0  0  0  0  0  0  0
    2.2349   -2.9521    0.0000 C   0  0  0  0  0  0  0  0  0  0  0  0
    1.4918   -3.6212    0.0000 F   0  0  0  0  0  0  0  0  0  0  0  0
    2.4428   -3.9302    0.0000 F   0  0  0  0  0  0  0  0  0  0  0  0
    1.5658   -2.2089    0.0000 F   0  0  0  0  0  0  0  0  0  0  0  0
    4.3092    0.2319    0.0000 C   0  0  0  0  0  0  0  0  0  0  0  0
    4.9784    0.9750    0.0000 N   0  0  0  0  0  0  0  0  0  0  0  0
    5.8919    0.5683    0.0000 N   0  0  0  0  0  0  0  0  0  0  0  0
    3.3147    0.3364    0.0000 C   0  0  0  0  0  0  0  0  0  0  0  0
    2.6456   -0.4067    0.0000 C   0  0  0  0  0  0  0  0  0  0  0  0
    1.7321    0.0000    0.0000 N   0  0  0  0  0  0  0  0  0  0  0  0
    1.8366    0.9945    0.0000 N   0  0  0  0  0  0  0  0  0  0  0  0
    2.8147    1.2024    0.0000 C   0  0  0  0  0  0  0  0  0  0  0  0
    3.2215    2.1160    0.0000 C   0  0  0  0  0  0  0  0  0  0  0  0
    0.8660   -0.5000    0.0000 C   0  0  0  0  0  0  0  0  0  0  0  0
    0.8660   -1.5000    0.0000 C   0  0  0  0  0  0  0  0  0  0  0  0
    0.0000   -2.0000    0.0000 C   0  0  0  0  0  0  0  0  0  0  0  0
   -0.8660   -1.5000    0.0000 C   0  0  0  0  0  0  0  0  0  0  0  0
   -0.8660   -0.5000    0.0000 C   0  0  0  0  0  0  0  0  0  0  0  0
    0.0000    0.0000    0.0000 C   0  0  0  0  0  0  0  0  0  0  0  0
   -1.7321   -2.0000    0.0000 F   0  0  0  0  0  0  0  0  0  0  0  0
    2.8535   -1.3849    0.0000 C   0  0  0  0  0  0  0  0  0  0  0  0
  1  6  2  0  0  0  0
  1  2  1  0  0  0  0
  2  3  2  0  0  0  0
  3  4  1  0  0  0  0
  4 15  2  0  0  0  0
  4  5  1  0  0  0  0
  5  6  1  0  0  0  0
  5 13  1  0  0  0  0
  6  7  1  0  0  0  0
  7  8  1  0  0  0  0
  8  9  1  0  0  0  0
  9 10  1  0  0  0  0
  9 11  1  0  0  0  0
  9 12  1  0  0  0  0
 13 14  2  0  0  0  0
 13 16  1  0  0  0  0
 14 15  1  0  0  0  0
 16 20  1  0  0  0  0
 16 17  2  0  0  0  0
 17 18  1  0  0  0  0
 17 29  1  0  0  0  0
 18 19  1  0  0  0  0
 18 22  1  0  0  0  0
 19 20  2  0  0  0  0
 20 21  1  0  0  0  0
 22 27  1  0  0  0  0
 22 23  2  0  0  0  0
 23 24  1  0  0  0  0
 24 25  2  0  0  0  0
 25 26  1  0  0  0  0
 25 28  1  0  0  0  0
 26 27  2  0  0  0  0
M  END
> <MW>
406.34

> <EC50>
10

$$$$
MMV671680
 OpenBabel06241423362D

 32 35  0  0  0  0  0  0  0  0999 V2000
    3.9703    1.4680    0.0000 C   0  0  0  0  0  0  0  0  0  0  0  0
    3.9703    2.4680    0.0000 N   0  0  0  0  0  0  0  0  0  0  0  0
    3.1042    2.9680    0.0000 C   0  0  0  0  0  0  0  0  0  0  0  0
    2.2382    2.4680    0.0000 C   0  0  0  0  0  0  0  0  0  0  0  0
    2.2382    1.4680    0.0000 N   0  0  0  0  0  0  0  0  0  0  0  0
    3.1042    0.9680    0.0000 C   0  0  0  0  0  0  0  0  0  0  0  0
    3.1042   -0.0320    0.0000 O   0  0  0  0  0  0  0  0  0  0  0  0
    3.9703   -0.5320    0.0000 C   0  0  0  0  0  0  0  0  0  0  0  0
    4.8363   -0.0320    0.0000 C   0  0  0  0  0  0  0  0  0  0  0  0
    5.7023   -0.5320    0.0000 C   0  0  0  0  0  0  0  0  0  0  0  0
    5.7023   -1.5320    0.0000 C   0  0  0  0  0  0  0  0  0  0  0  0
    4.8363   -2.0320    0.0000 C   0  0  0  0  0  0  0  0  0  0  0  0
    3.9703   -1.5320    0.0000 C   0  0  0  0  0  0  0  0  0  0  0  0
    6.5683   -2.0320    0.0000 S   0  0  0  0  0  0  0  0  0  0  0  0
    5.7023   -2.5320    0.0000 F   0  0  0  0  0  0  0  0  0  0  0  0
    6.5683   -3.0320    0.0000 F   0  0  0  0  0  0  0  0  0  0  0  0
    7.4344   -2.5320    0.0000 F   0  0  0  0  0  0  0  0  0  0  0  0
    7.4344   -1.5320    0.0000 F   0  0  0  0  0  0  0  0  0  0  0  0
    6.5683   -1.0320    0.0000 F   0  0  0  0  0  0  0  0  0  0  0  0
    1.2872    1.1590    0.0000 C   0  0  0  0  0  0  0  0  0  0  0  0
    0.6994    1.9680    0.0000 N   0  0  0  0  0  0  0  0  0  0  0  0
    1.2872    2.7770    0.0000 N   0  0  0  0  0  0  0  0  0  0  0  0
    0.9781    0.2079    0.0000 C   0  0  0  0  0  0  0  0  0  0  0  0
    1.6473   -0.5352    0.0000 C   0  0  0  0  0  0  0  0  0  0  0  0
    1.3383   -1.4863    0.0000 C   0  0  0  0  0  0  0  0  0  0  0  0
    0.3601   -1.6942    0.0000 C   0  0  0  0  0  0  0  0  0  0  0  0
   -0.3090   -0.9511    0.0000 C   0  0  0  0  0  0  0  0  0  0  0  0
    0.0000    0.0000    0.0000 C   0  0  0  0  0  0  0  0  0  0  0  0
    0.0511   -2.6453    0.0000 O   0  0  0  0  0  0  0  0  0  0  0  0
   -0.9271   -2.8532    0.0000 C   0  0  0  0  0  0  0  0  0  0  0  0
   -1.5962   -2.1100    0.0000 F   0  0  0  0  0  0  0  0  0  0  0  0
   -1.2361   -3.8042    0.0000 F   0  0  0  0  0  0  0  0  0  0  0  0
  1  6  2  0  0  0  0
  1  2  1  0  0  0  0
  2  3  2  0  0  0  0
  3  4  1  0  0  0  0
  4 22  2  0  0  0  0
  4  5  1  0  0  0  0
  5  6  1  0  0  0  0
  5 20  1  0  0  0  0
  6  7  1  0  0  0  0
  7  8  1  0  0  0  0
  8 13  1  0  0  0  0
  8  9  2  0  0  0  0
  9 10  1  0  0  0  0
 10 11  2  0  0  0  0
 11 12  1  0  0  0  0
 11 14  1  0  0  0  0
 12 13  2  0  0  0  0
 14 15  1  0  0  0  0
 14 16  1  0  0  0  0
 14 17  1  0  0  0  0
 14 18  1  0  0  0  0
 14 19  1  0  0  0  0
 20 21  2  0  0  0  0
 20 23  1  0  0  0  0
 21 22  1  0  0  0  0
 23 28  1  0  0  0  0
 23 24  2  0  0  0  0
 24 25  1  0  0  0  0
 25 26  2  0  0  0  0
 26 27  1  0  0  0  0
 26 29  1  0  0  0  0
 27 28  2  0  0  0  0
 29 30  1  0  0  0  0
 30 31  1  0  0  0  0
 30 32  1  0  0  0  0
M  END
> <MW>
480.36

> <EC50>
0.2627

$$$$
MMV671926
 OpenBabel06241423362D

 28 31  0  0  0  0  0  0  0  0999 V2000
    0.0000   -2.0000    0.0000 C   0  0  0  0  0  0  0  0  0  0  0  0
    0.0000   -3.0000    0.0000 N   0  0  0  0  0  0  0  0  0  0  0  0
    0.8660   -3.5000    0.0000 C   0  0  0  0  0  0  0  0  0  0  0  0
    1.7321   -3.0000    0.0000 C   0  0  0  0  0  0  0  0  0  0  0  0
    1.7321   -2.0000    0.0000 N   0  0  0  0  0  0  0  0  0  0  0  0
    0.8660   -1.5000    0.0000 C   0  0  0  0  0  0  0  0  0  0  0  0
    2.6831   -1.6910    0.0000 C   0  0  0  0  0  0  0  0  0  0  0  0
    3.2709   -2.5000    0.0000 N   0  0  0  0  0  0  0  0  0  0  0  0
    2.6831   -3.3090    0.0000 N   0  0  0  0  0  0  0  0  0  0  0  0
    2.9921   -0.7399    0.0000 C   0  0  0  0  0  0  0  0  0  0  0  0
    2.3230    0.0032    0.0000 C   0  0  0  0  0  0  0  0  0  0  0  0
    2.6320    0.9543    0.0000 C   0  0  0  0  0  0  0  0  0  0  0  0
    3.6102    1.1622    0.0000 C   0  0  0  0  0  0  0  0  0  0  0  0
    4.2793    0.4190    0.0000 C   0  0  0  0  0  0  0  0  0  0  0  0
    3.9703   -0.5320    0.0000 C   0  0  0  0  0  0  0  0  0  0  0  0
    3.9192    2.1132    0.0000 O   0  0  0  0  0  0  0  0  0  0  0  0
    4.8973    2.3212    0.0000 C   0  0  0  0  0  0  0  0  0  0  0  0
    5.5665    1.5780    0.0000 F   0  0  0  0  0  0  0  0  0  0  0  0
    5.2063    3.2722    0.0000 F   0  0  0  0  0  0  0  0  0  0  0  0
   -0.8660   -1.5000    0.0000 O   0  0  0  0  0  0  0  0  0  0  0  0
   -0.8660   -0.5000    0.0000 C   0  0  0  0  0  0  0  0  0  0  0  0
   -1.7321    0.0000    0.0000 C   0  0  0  0  0  0  0  0  0  0  0  0
   -1.7321    1.0000    0.0000 C   0  0  0  0  0  0  0  0  0  0  0  0
   -0.8660    1.5000    0.0000 C   0  0  0  0  0  0  0  0  0  0  0  0
    0.0000    1.0000    0.0000 C   0  0  0  0  0  0  0  0  0  0  0  0
    0.0000    0.0000    0.0000 C   0  0  0  0  0  0  0  0  0  0  0  0
    0.8660    1.5000    0.0000 F   0  0  0  0  0  0  0  0  0  0  0  0
   -0.8660    2.5000    0.0000 F   0  0  0  0  0  0  0  0  0  0  0  0
  1  6  2  0  0  0  0
  1  2  1  0  0  0  0
  1 20  1  0  0  0  0
  2  3  2  0  0  0  0
  3  4  1  0  0  0  0
  4  9  2  0  0  0  0
  4  5  1  0  0  0  0
  5  6  1  0  0  0  0
  5  7  1  0  0  0  0
  7  8  2  0  0  0  0
  7 10  1  0  0  0  0
  8  9  1  0  0  0  0
 10 15  1  0  0  0  0
 10 11  2  0  0  0  0
 11 12  1  0  0  0  0
 12 13  2  0  0  0  0
 13 14  1  0  0  0  0
 13 16  1  0  0  0  0
 14 15  2  0  0  0  0
 16 17  1  0  0  0  0
 17 18  1  0  0  0  0
 17 19  1  0  0  0  0
 20 21  1  0  0  0  0
 21 26  1  0  0  0  0
 21 22  2  0  0  0  0
 22 23  1  0  0  0  0
 23 24  2  0  0  0  0
 24 25  1  0  0  0  0
 24 28  1  0  0  0  0
 25 26  2  0  0  0  0
 25 27  1  0  0  0  0
M  END
> <MW>
390.3

> <EC50>
3.446

$$$$
MMV671927
 OpenBabel06241423362D

 29 32  0  0  0  0  0  0  0  0999 V2000
   -3.4641    1.0000    0.0000 C   0  0  0  0  0  0  0  0  0  0  0  0
   -4.3301    1.5000    0.0000 N   0  0  0  0  0  0  0  0  0  0  0  0
   -5.1962    1.0000    0.0000 C   0  0  0  0  0  0  0  0  0  0  0  0
   -5.1962    0.0000    0.0000 C   0  0  0  0  0  0  0  0  0  0  0  0
   -4.3301   -0.5000    0.0000 N   0  0  0  0  0  0  0  0  0  0  0  0
   -3.4641    0.0000    0.0000 C   0  0  0  0  0  0  0  0  0  0  0  0
   -4.5380   -1.4781    0.0000 C   0  0  0  0  0  0  0  0  0  0  0  0
   -5.5326   -1.5827    0.0000 N   0  0  0  0  0  0  0  0  0  0  0  0
   -5.9393   -0.6691    0.0000 N   0  0  0  0  0  0  0  0  0  0  0  0
   -3.8689   -2.2213    0.0000 C   0  0  0  0  0  0  0  0  0  0  0  0
   -2.8908   -2.0134    0.0000 C   0  0  0  0  0  0  0  0  0  0  0  0
   -2.2216   -2.7565    0.0000 C   0  0  0  0  0  0  0  0  0  0  0  0
   -2.5306   -3.7076    0.0000 C   0  0  0  0  0  0  0  0  0  0  0  0
   -3.5088   -3.9155    0.0000 C   0  0  0  0  0  0  0  0  0  0  0  0
   -4.1779   -3.1723    0.0000 C   0  0  0  0  0  0  0  0  0  0  0  0
   -1.8615   -4.4507    0.0000 O   0  0  0  0  0  0  0  0  0  0  0  0
   -2.1705   -5.4018    0.0000 C   0  0  0  0  0  0  0  0  0  0  0  0
   -3.1487   -5.6097    0.0000 F   0  0  0  0  0  0  0  0  0  0  0  0
   -1.5014   -6.1449    0.0000 F   0  0  0  0  0  0  0  0  0  0  0  0
   -2.5981    1.5000    0.0000 N   0  0  0  0  0  0  0  0  0  0  0  0
   -1.7321    1.0000    0.0000 C   0  0  0  0  0  0  0  0  0  0  0  0
   -0.8660    1.5000    0.0000 C   0  0  0  0  0  0  0  0  0  0  0  0
    0.0000    1.0000    0.0000 C   0  0  0  0  0  0  0  0  0  0  0  0
    0.8660    1.5000    0.0000 C   0  0  0  0  0  0  0  0  0  0  0  0
    1.7321    1.0000    0.0000 C   0  0  0  0  0  0  0  0  0  0  0  0
    1.7321    0.0000    0.0000 C   0  0  0  0  0  0  0  0  0  0  0  0
    0.8660   -0.5000    0.0000 C   0  0  0  0  0  0  0  0  0  0  0  0
    0.0000    0.0000    0.0000 C   0  0  0  0  0  0  0  0  0  0  0  0
    2.5981   -0.5000    0.0000 F   0  0  0  0  0  0  0  0  0  0  0  0
  1  6  2  0  0  0  0
  1  2  1  0  0  0  0
  1 20  1  0  0  0  0
  2  3  2  0  0  0  0
  3  4  1  0  0  0  0
  4  9  2  0  0  0  0
  4  5  1  0  0  0  0
  5  6  1  0  0  0  0
  5  7  1  0  0  0  0
  7  8  2  0  0  0  0
  7 10  1  0  0  0  0
  8  9  1  0  0  0  0
 10 15  1  0  0  0  0
 10 11  2  0  0  0  0
 11 12  1  0  0  0  0
 12 13  2  0  0  0  0
 13 14  1  0  0  0  0
 13 16  1  0  0  0  0
 14 15  2  0  0  0  0
 16 17  1  0  0  0  0
 17 18  1  0  0  0  0
 17 19  1  0  0  0  0
 20 21  1  0  0  0  0
 21 22  1  0  0  0  0
 22 23  1  0  0  0  0
 23 28  1  0  0  0  0
 23 24  2  0  0  0  0
 24 25  1  0  0  0  0
 25 26  2  0  0  0  0
 26 27  1  0  0  0  0
 26 29  1  0  0  0  0
 27 28  2  0  0  0  0
M  END
> <MW>
399.38

> <EC50>
10

$$$$
MMV671929
 OpenBabel06241423362D

 32 36  0  0  0  0  0  0  0  0999 V2000
    5.6359   -0.6170    0.0000 C    0  0  0  0  0  0  0  0  0  0  0  0
    6.5019   -0.1170    0.0000 N    0  0  0  0  0  0  0  0  0  0  0  0
    6.5019    0.8830    0.0000 C    0  0  0  0  0  0  0  0  0  0  0  0
    5.6359    1.3830    0.0000 C    0  0  0  0  0  0  0  0  0  0  0  0
    4.7698    0.8830    0.0000 N    0  0  0  0  0  0  0  0  0  0  0  0
    4.7698   -0.1170    0.0000 C    0  0  0  0  0  0  0  0  0  0  0  0
    3.9038   -0.6170    0.0000 O    0  0  0  0  0  0  0  0  0  0  0  0
    3.9038   -1.6170    0.0000 C    0  0  0  0  0  0  0  0  0  0  0  0
    4.7698   -2.1170    0.0000 C    0  0  0  0  0  0  0  0  0  0  0  0
    4.7698   -3.1170    0.0000 C    0  0  0  0  0  0  0  0  0  0  0  0
    3.9038   -3.6170    0.0000 C    0  0  0  0  0  0  0  0  0  0  0  0
    3.0378   -3.1170    0.0000 C    0  0  0  0  0  0  0  0  0  0  0  0
    3.0378   -2.1170    0.0000 C    0  0  0  0  0  0  0  0  0  0  0  0
    2.1718   -3.6170    0.0000 Cl   0  0  0  0  0  0  0  0  0  0  0  0
    3.9038   -4.6170    0.0000 Cl   0  0  0  0  0  0  0  0  0  0  0  0
    4.0267    1.5522    0.0000 C    0  0  0  0  0  0  0  0  0  0  0  0
    4.4334    2.4657    0.0000 N    0  0  0  0  0  0  0  0  0  0  0  0
    5.4279    2.3612    0.0000 N    0  0  0  0  0  0  0  0  0  0  0  0
    3.0485    1.3443    0.0000 C    0  0  0  0  0  0  0  0  0  0  0  0
    2.6418    0.4307    0.0000 C    0  0  0  0  0  0  0  0  0  0  0  0
    1.6473    0.5352    0.0000 N    0  0  0  0  0  0  0  0  0  0  0  0
    1.4394    1.5134    0.0000 N    0  0  0  0  0  0  0  0  0  0  0  0
    2.3054    2.0134    0.0000 C    0  0  0  0  0  0  0  0  0  0  0  0
    2.4099    3.0079    0.0000 C    0  0  0  0  0  0  0  0  0  0  0  0
    0.9781   -0.2079    0.0000 C    0  0  0  0  0  0  0  0  0  0  0  0
    1.2872   -1.1590    0.0000 C    0  0  0  0  0  0  0  0  0  0  0  0
    0.6180   -1.9021    0.0000 C    0  0  0  0  0  0  0  0  0  0  0  0
   -0.3601   -1.6942    0.0000 C    0  0  0  0  0  0  0  0  0  0  0  0
   -0.6691   -0.7431    0.0000 C    0  0  0  0  0  0  0  0  0  0  0  0
    0.0000    0.0000    0.0000 C    0  0  0  0  0  0  0  0  0  0  0  0
   -1.0292   -2.4373    0.0000 F    0  0  0  0  0  0  0  0  0  0  0  0
    3.1418   -0.4353    0.0000 C    0  0  0  0  0  0  0  0  0  0  0  0
  1  6  2  0  0  0  0
  1  2  1  0  0  0  0
  2  3  2  0  0  0  0
  3  4  1  0  0  0  0
  4 18  2  0  0  0  0
  4  5  1  0  0  0  0
  5  6  1  0  0  0  0
  5 16  1  0  0  0  0
  6  7  1  0  0  0  0
  7  8  1  0  0  0  0
  8 13  1  0  0  0  0
  8  9  2  0  0  0  0
  9 10  1  0  0  0  0
 10 11  2  0  0  0  0
 11 12  1  0  0  0  0
 11 15  1  0  0  0  0
 12 13  2  0  0  0  0
 12 14  1  0  0  0  0
 16 17  2  0  0  0  0
 16 19  1  0  0  0  0
 17 18  1  0  0  0  0
 19 23  1  0  0  0  0
 19 20  2  0  0  0  0
 20 21  1  0  0  0  0
 20 32  1  0  0  0  0
 21 22  1  0  0  0  0
 21 25  1  0  0  0  0
 22 23  2  0  0  0  0
 23 24  1  0  0  0  0
 25 30  1  0  0  0  0
 25 26  2  0  0  0  0
 26 27  1  0  0  0  0
 27 28  2  0  0  0  0
 28 29  1  0  0  0  0
 28 31  1  0  0  0  0
 29 30  2  0  0  0  0
M  END
> <MW>
469.31

> <EC50>
10

$$$$
MMV671933
 OpenBabel06241423362D

 37 42  0  0  1  0  0  0  0  0999 V2000
    0.0000   -1.0000    0.0000 C   0  0  2  0  0  0  0  0  0  0  0  0
   -0.9659   -1.2588    0.0000 H   0  0  0  0  0  0  0  0  0  0  0  0
    0.0000    0.0000    0.0000 C   0  0  1  0  0  0  0  0  0  0  0  0
   -0.2588    0.9659    0.0000 H   0  0  0  0  0  0  0  0  0  0  0  0
    1.0000    0.0000    0.0000 N   0  0  3  0  0  0  0  0  0  0  0  0
    1.0000   -1.0000    0.0000 C   0  0  0  0  0  0  0  0  0  0  0  0
    1.7071    0.7071    0.0000 C   0  0  0  0  0  0  0  0  0  0  0  0
    1.9659    1.6730    0.0000 C   0  0  0  0  0  0  0  0  0  0  0  0
    2.6730    0.9659    0.0000 C   0  0  0  0  0  0  0  0  0  0  0  0
   -0.9659    0.2588    0.0000 C   0  0  0  0  0  0  0  0  0  0  0  0
   -1.2247    1.2247    0.0000 C   0  0  0  0  0  0  0  0  0  0  0  0
   -2.1907    1.4836    0.0000 C   0  0  0  0  0  0  0  0  0  0  0  0
   -2.8978    0.7765    0.0000 C   0  0  0  0  0  0  0  0  0  0  0  0
   -2.6390   -0.1895    0.0000 C   0  0  0  0  0  0  0  0  0  0  0  0
   -1.6730   -0.4483    0.0000 C   0  0  0  0  0  0  0  0  0  0  0  0
   -3.8637    1.0353    0.0000 F   0  0  0  0  0  0  0  0  0  0  0  0
   -2.4495    2.4495    0.0000 F   0  0  0  0  0  0  0  0  0  0  0  0
   -0.2588   -1.9659    0.0000 O   0  0  0  0  0  0  0  0  0  0  0  0
    0.4483   -2.6730    0.0000 C   0  0  0  0  0  0  0  0  0  0  0  0
    1.4142   -2.4142    0.0000 C   0  0  0  0  0  0  0  0  0  0  0  0
    2.1213   -3.1213    0.0000 N   0  0  0  0  0  0  0  0  0  0  0  0
    1.8625   -4.0872    0.0000 C   0  0  0  0  0  0  0  0  0  0  0  0
    0.8966   -4.3461    0.0000 C   0  0  0  0  0  0  0  0  0  0  0  0
    0.1895   -3.6390    0.0000 N   0  0  0  0  0  0  0  0  0  0  0  0
   -0.7015   -4.0929    0.0000 C   0  0  0  0  0  0  0  0  0  0  0  0
   -0.5451   -5.0806    0.0000 N   0  0  0  0  0  0  0  0  0  0  0  0
    0.4426   -5.2371    0.0000 N   0  0  0  0  0  0  0  0  0  0  0  0
   -1.5925   -3.6390    0.0000 C   0  0  0  0  0  0  0  0  0  0  0  0
   -2.4312   -4.1836    0.0000 C   0  0  0  0  0  0  0  0  0  0  0  0
   -3.3222   -3.7296    0.0000 C   0  0  0  0  0  0  0  0  0  0  0  0
   -3.3746   -2.7310    0.0000 C   0  0  0  0  0  0  0  0  0  0  0  0
   -2.5359   -2.1863    0.0000 C   0  0  0  0  0  0  0  0  0  0  0  0
   -1.6449   -2.6403    0.0000 C   0  0  0  0  0  0  0  0  0  0  0  0
   -4.2656   -2.2770    0.0000 O   0  0  0  0  0  0  0  0  0  0  0  0
   -4.3179   -1.2784    0.0000 C   0  0  0  0  0  0  0  0  0  0  0  0
   -3.4792   -0.7337    0.0000 F   0  0  0  0  0  0  0  0  0  0  0  0
   -5.2089   -0.8244    0.0000 F   0  0  0  0  0  0  0  0  0  0  0  0
  1  2  1  1  0  0  0
  1  6  1  0  0  0  0
  1  3  1  0  0  0  0
  1 18  1  0  0  0  0
  3  4  1  1  0  0  0
  3  5  1  0  0  0  0
  3 10  1  0  0  0  0
  5  6  1  0  0  0  0
  5  7  1  0  0  0  0
  7  9  1  0  0  0  0
  7  8  1  0  0  0  0
  8  9  1  0  0  0  0
 10 15  1  0  0  0  0
 10 11  2  0  0  0  0
 11 12  1  0  0  0  0
 12 13  2  0  0  0  0
 12 17  1  0  0  0  0
 13 14  1  0  0  0  0
 13 16  1  0  0  0  0
 14 15  2  0  0  0  0
 18 19  1  0  0  0  0
 19 24  1  0  0  0  0
 19 20  2  0  0  0  0
 20 21  1  0  0  0  0
 21 22  2  0  0  0  0
 22 23  1  0  0  0  0
 23 27  2  0  0  0  0
 23 24  1  0  0  0  0
 24 25  1  0  0  0  0
 25 26  2  0  0  0  0
 25 28  1  0  0  0  0
 26 27  1  0  0  0  0
 28 33  1  0  0  0  0
 28 29  2  0  0  0  0
 29 30  1  0  0  0  0
 30 31  2  0  0  0  0
 31 32  1  0  0  0  0
 31 34  1  0  0  0  0
 32 33  2  0  0  0  0
 34 35  1  0  0  0  0
 35 36  1  0  0  0  0
 35 37  1  0  0  0  0
M  END
> <MW>
485.44

> <EC50>
0.6095

$$$$
MMV671934
 OpenBabel06241423362D

 38 43  0  0  1  0  0  0  0  0999 V2000
    0.0000   -1.0000    0.0000 C   0  0  2  0  0  0  0  0  0  0  0  0
   -0.9659   -1.2588    0.0000 H   0  0  0  0  0  0  0  0  0  0  0  0
    0.0000    0.0000    0.0000 C   0  0  1  0  0  0  0  0  0  0  0  0
   -0.2588    0.9659    0.0000 H   0  0  0  0  0  0  0  0  0  0  0  0
    1.0000    0.0000    0.0000 N   0  0  0  0  0  0  0  0  0  0  0  0
    1.0000   -1.0000    0.0000 C   0  0  0  0  0  0  0  0  0  0  0  0
    1.7071   -1.7071    0.0000 O   0  0  0  0  0  0  0  0  0  0  0  0
    1.7071    0.7071    0.0000 C   0  0  0  0  0  0  0  0  0  0  0  0
    1.9659    1.6730    0.0000 C   0  0  0  0  0  0  0  0  0  0  0  0
    2.6730    0.9659    0.0000 C   0  0  0  0  0  0  0  0  0  0  0  0
   -0.9659    0.2588    0.0000 C   0  0  0  0  0  0  0  0  0  0  0  0
   -1.2247    1.2247    0.0000 C   0  0  0  0  0  0  0  0  0  0  0  0
   -2.1907    1.4836    0.0000 C   0  0  0  0  0  0  0  0  0  0  0  0
   -2.8978    0.7765    0.0000 C   0  0  0  0  0  0  0  0  0  0  0  0
   -2.6390   -0.1895    0.0000 C   0  0  0  0  0  0  0  0  0  0  0  0
   -1.6730   -0.4483    0.0000 C   0  0  0  0  0  0  0  0  0  0  0  0
   -3.8637    1.0353    0.0000 F   0  0  0  0  0  0  0  0  0  0  0  0
   -2.4495    2.4495    0.0000 F   0  0  0  0  0  0  0  0  0  0  0  0
   -0.2588   -1.9659    0.0000 O   0  0  0  0  0  0  0  0  0  0  0  0
    0.4483   -2.6730    0.0000 C   0  0  0  0  0  0  0  0  0  0  0  0
    1.4142   -2.4142    0.0000 C   0  0  0  0  0  0  0  0  0  0  0  0
    2.1213   -3.1213    0.0000 N   0  0  0  0  0  0  0  0  0  0  0  0
    1.8625   -4.0872    0.0000 C   0  0  0  0  0  0  0  0  0  0  0  0
    0.8966   -4.3461    0.0000 C   0  0  0  0  0  0  0  0  0  0  0  0
    0.1895   -3.6390    0.0000 N   0  0  0  0  0  0  0  0  0  0  0  0
   -0.7015   -4.0929    0.0000 C   0  0  0  0  0  0  0  0  0  0  0  0
   -0.5451   -5.0806    0.0000 N   0  0  0  0  0  0  0  0  0  0  0  0
    0.4426   -5.2371    0.0000 N   0  0  0  0  0  0  0  0  0  0  0  0
   -1.5925   -3.6390    0.0000 C   0  0  0  0  0  0  0  0  0  0  0  0
   -2.4312   -4.1836    0.0000 C   0  0  0  0  0  0  0  0  0  0  0  0
   -3.3222   -3.7296    0.0000 C   0  0  0  0  0  0  0  0  0  0  0  0
   -3.3746   -2.7310    0.0000 C   0  0  0  0  0  0  0  0  0  0  0  0
   -2.5359   -2.1863    0.0000 C   0  0  0  0  0  0  0  0  0  0  0  0
   -1.6449   -2.6403    0.0000 C   0  0  0  0  0  0  0  0  0  0  0  0
   -4.2656   -2.2770    0.0000 O   0  0  0  0  0  0  0  0  0  0  0  0
   -4.3179   -1.2784    0.0000 C   0  0  0  0  0  0  0  0  0  0  0  0
   -3.4792   -0.7337    0.0000 F   0  0  0  0  0  0  0  0  0  0  0  0
   -5.2089   -0.8244    0.0000 F   0  0  0  0  0  0  0  0  0  0  0  0
  1  2  1  1  0  0  0
  1  6  1  0  0  0  0
  1  3  1  0  0  0  0
  1 19  1  0  0  0  0
  3  4  1  1  0  0  0
  3  5  1  0  0  0  0
  3 11  1  0  0  0  0
  5  6  1  0  0  0  0
  5  8  1  0  0  0  0
  6  7  2  0  0  0  0
  8 10  1  0  0  0  0
  8  9  1  0  0  0  0
  9 10  1  0  0  0  0
 11 16  1  0  0  0  0
 11 12  2  0  0  0  0
 12 13  1  0  0  0  0
 13 14  2  0  0  0  0
 13 18  1  0  0  0  0
 14 15  1  0  0  0  0
 14 17  1  0  0  0  0
 15 16  2  0  0  0  0
 19 20  1  0  0  0  0
 20 25  1  0  0  0  0
 20 21  2  0  0  0  0
 21 22  1  0  0  0  0
 22 23  2  0  0  0  0
 23 24  1  0  0  0  0
 24 28  2  0  0  0  0
 24 25  1  0  0  0  0
 25 26  1  0  0  0  0
 26 27  2  0  0  0  0
 26 29  1  0  0  0  0
 27 28  1  0  0  0  0
 29 34  1  0  0  0  0
 29 30  2  0  0  0  0
 30 31  1  0  0  0  0
 31 32  2  0  0  0  0
 32 33  1  0  0  0  0
 32 35  1  0  0  0  0
 33 34  2  0  0  0  0
 35 36  1  0  0  0  0
 36 37  1  0  0  0  0
 36 38  1  0  0  0  0
M  END
> <MW>
499.42

> <EC50>
1.121

$$$$
MMV672618
 OpenBabel06241423362D

 30 34  0  0  0  0  0  0  0  0999 V2000
   -3.1890   -1.4968    0.0000 C   0  0  0  0  0  0  0  0  0  0  0  0
   -2.3230   -0.9968    0.0000 C   0  0  0  0  0  0  0  0  0  0  0  0
   -2.3230    0.0032    0.0000 C   0  0  0  0  0  0  0  0  0  0  0  0
   -3.1890    0.5032    0.0000 C   0  0  0  0  0  0  0  0  0  0  0  0
   -4.0550    0.0032    0.0000 C   0  0  0  0  0  0  0  0  0  0  0  0
   -4.0550   -0.9968    0.0000 C   0  0  0  0  0  0  0  0  0  0  0  0
   -5.0061   -1.3058    0.0000 N   0  0  0  0  0  0  0  0  0  0  0  0
   -5.5939   -0.4968    0.0000 C   0  0  0  0  0  0  0  0  0  0  0  0
   -5.0061    0.3122    0.0000 C   0  0  0  0  0  0  0  0  0  0  0  0
   -5.3151   -2.2569    0.0000 C   0  0  0  0  0  0  0  0  0  0  0  0
   -1.4570    0.5032    0.0000 O   0  0  0  0  0  0  0  0  0  0  0  0
   -1.4570    1.5032    0.0000 C   0  0  0  0  0  0  0  0  0  0  0  0
   -2.3230    2.0032    0.0000 C   0  0  0  0  0  0  0  0  0  0  0  0
   -2.3230    3.0032    0.0000 N   0  0  0  0  0  0  0  0  0  0  0  0
   -1.4570    3.5032    0.0000 C   0  0  0  0  0  0  0  0  0  0  0  0
   -0.5909    3.0032    0.0000 C   0  0  0  0  0  0  0  0  0  0  0  0
   -0.5909    2.0032    0.0000 N   0  0  0  0  0  0  0  0  0  0  0  0
    0.3601    1.6942    0.0000 C   0  0  0  0  0  0  0  0  0  0  0  0
    0.9479    2.5032    0.0000 N   0  0  0  0  0  0  0  0  0  0  0  0
    0.3601    3.3122    0.0000 N   0  0  0  0  0  0  0  0  0  0  0  0
    0.6691    0.7431    0.0000 C   0  0  0  0  0  0  0  0  0  0  0  0
    1.6473    0.5352    0.0000 C   0  0  0  0  0  0  0  0  0  0  0  0
    1.9563   -0.4158    0.0000 C   0  0  0  0  0  0  0  0  0  0  0  0
    1.2872   -1.1590    0.0000 C   0  0  0  0  0  0  0  0  0  0  0  0
    0.3090   -0.9511    0.0000 C   0  0  0  0  0  0  0  0  0  0  0  0
    0.0000    0.0000    0.0000 C   0  0  0  0  0  0  0  0  0  0  0  0
    1.5962   -2.1100    0.0000 O   0  0  0  0  0  0  0  0  0  0  0  0
    2.5743   -2.3179    0.0000 C   0  0  0  0  0  0  0  0  0  0  0  0
    2.8833   -3.2690    0.0000 F   0  0  0  0  0  0  0  0  0  0  0  0
    3.2435   -1.5748    0.0000 F   0  0  0  0  0  0  0  0  0  0  0  0
  1  6  1  0  0  0  0
  1  2  2  0  0  0  0
  2  3  1  0  0  0  0
  3  4  2  0  0  0  0
  3 11  1  0  0  0  0
  4  5  1  0  0  0  0
  5  9  1  0  0  0  0
  5  6  2  0  0  0  0
  6  7  1  0  0  0  0
  7  8  1  0  0  0  0
  7 10  1  0  0  0  0
  8  9  2  0  0  0  0
 11 12  1  0  0  0  0
 12 17  1  0  0  0  0
 12 13  2  0  0  0  0
 13 14  1  0  0  0  0
 14 15  2  0  0  0  0
 15 16  1  0  0  0  0
 16 20  2  0  0  0  0
 16 17  1  0  0  0  0
 17 18  1  0  0  0  0
 18 19  2  0  0  0  0
 18 21  1  0  0  0  0
 19 20  1  0  0  0  0
 21 26  1  0  0  0  0
 21 22  2  0  0  0  0
 22 23  1  0  0  0  0
 23 24  2  0  0  0  0
 24 25  1  0  0  0  0
 24 27  1  0  0  0  0
 25 26  2  0  0  0  0
 27 28  1  0  0  0  0
 28 29  1  0  0  0  0
 28 30  1  0  0  0  0
M  END
> <MW>
407.38

> <EC50>
1.983

$$$$
MMV672619
 OpenBabel06241423362D

 38 43  0  0  1  0  0  0  0  0999 V2000
    0.0000   -1.0000    0.0000 C   0  0  2  0  0  0  0  0  0  0  0  0
   -0.9659   -1.2588    0.0000 H   0  0  0  0  0  0  0  0  0  0  0  0
    0.0000    0.0000    0.0000 C   0  0  0  0  0  0  0  0  0  0  0  0
    1.0000    0.0000    0.0000 N   0  0  0  0  0  0  0  0  0  0  0  0
    1.0000   -1.0000    0.0000 C   0  0  2  0  0  0  0  0  0  0  0  0
    1.2588   -1.9659    0.0000 H   0  0  0  0  0  0  0  0  0  0  0  0
    1.9659   -1.2588    0.0000 C   0  0  0  0  0  0  0  0  0  0  0  0
    2.6730   -0.5517    0.0000 C   0  0  0  0  0  0  0  0  0  0  0  0
    3.6390   -0.8105    0.0000 C   0  0  0  0  0  0  0  0  0  0  0  0
    3.8978   -1.7765    0.0000 C   0  0  0  0  0  0  0  0  0  0  0  0
    3.1907   -2.4836    0.0000 C   0  0  0  0  0  0  0  0  0  0  0  0
    2.2247   -2.2247    0.0000 C   0  0  0  0  0  0  0  0  0  0  0  0
    4.8637   -2.0353    0.0000 F   0  0  0  0  0  0  0  0  0  0  0  0
    4.3461   -0.1034    0.0000 F   0  0  0  0  0  0  0  0  0  0  0  0
    1.7071    0.7071    0.0000 C   0  0  0  0  0  0  0  0  0  0  0  0
    1.9659    1.6730    0.0000 C   0  0  0  0  0  0  0  0  0  0  0  0
    2.6730    0.9659    0.0000 C   0  0  0  0  0  0  0  0  0  0  0  0
   -0.7071    0.7071    0.0000 O   0  0  0  0  0  0  0  0  0  0  0  0
   -0.2588   -1.9659    0.0000 O   0  0  0  0  0  0  0  0  0  0  0  0
   -1.2247   -2.2247    0.0000 C   0  0  0  0  0  0  0  0  0  0  0  0
   -1.4836   -3.1907    0.0000 N   0  0  0  0  0  0  0  0  0  0  0  0
   -2.4495   -3.4495    0.0000 C   0  0  0  0  0  0  0  0  0  0  0  0
   -3.1566   -2.7424    0.0000 C   0  0  0  0  0  0  0  0  0  0  0  0
   -2.8978   -1.7765    0.0000 N   0  0  0  0  0  0  0  0  0  0  0  0
   -1.9319   -1.5176    0.0000 C   0  0  0  0  0  0  0  0  0  0  0  0
   -3.7364   -1.2318    0.0000 C   0  0  0  0  0  0  0  0  0  0  0  0
   -4.5136   -1.8611    0.0000 N   0  0  0  0  0  0  0  0  0  0  0  0
   -4.1552   -2.7947    0.0000 N   0  0  0  0  0  0  0  0  0  0  0  0
   -3.7888   -0.2332    0.0000 C   0  0  0  0  0  0  0  0  0  0  0  0
   -4.6798    0.2208    0.0000 C   0  0  0  0  0  0  0  0  0  0  0  0
   -4.7321    1.2194    0.0000 C   0  0  0  0  0  0  0  0  0  0  0  0
   -3.8935    1.7641    0.0000 C   0  0  0  0  0  0  0  0  0  0  0  0
   -3.0024    1.3101    0.0000 C   0  0  0  0  0  0  0  0  0  0  0  0
   -2.9501    0.3115    0.0000 C   0  0  0  0  0  0  0  0  0  0  0  0
   -3.9458    2.7627    0.0000 O   0  0  0  0  0  0  0  0  0  0  0  0
   -3.1071    3.3073    0.0000 C   0  0  0  0  0  0  0  0  0  0  0  0
   -2.2161    2.8533    0.0000 F   0  0  0  0  0  0  0  0  0  0  0  0
   -3.1595    4.3060    0.0000 F   0  0  0  0  0  0  0  0  0  0  0  0
  1  2  1  1  0  0  0
  1  5  1  0  0  0  0
  1  3  1  0  0  0  0
  1 19  1  0  0  0  0
  3  4  1  0  0  0  0
  3 18  2  0  0  0  0
  4  5  1  0  0  0  0
  4 15  1  0  0  0  0
  5  6  1  1  0  0  0
  5  7  1  0  0  0  0
  7 12  1  0  0  0  0
  7  8  2  0  0  0  0
  8  9  1  0  0  0  0
  9 10  2  0  0  0  0
  9 14  1  0  0  0  0
 10 11  1  0  0  0  0
 10 13  1  0  0  0  0
 11 12  2  0  0  0  0
 15 17  1  0  0  0  0
 15 16  1  0  0  0  0
 16 17  1  0  0  0  0
 19 20  1  0  0  0  0
 20 25  2  0  0  0  0
 20 21  1  0  0  0  0
 21 22  2  0  0  0  0
 22 23  1  0  0  0  0
 23 28  2  0  0  0  0
 23 24  1  0  0  0  0
 24 25  1  0  0  0  0
 24 26  1  0  0  0  0
 26 27  2  0  0  0  0
 26 29  1  0  0  0  0
 27 28  1  0  0  0  0
 29 34  1  0  0  0  0
 29 30  2  0  0  0  0
 30 31  1  0  0  0  0
 31 32  2  0  0  0  0
 32 33  1  0  0  0  0
 32 35  1  0  0  0  0
 33 34  2  0  0  0  0
 35 36  1  0  0  0  0
 36 37  1  0  0  0  0
 36 38  1  0  0  0  0
M  END
> <MW>
499.42

> <EC50>
10

$$$$
MMV672620
 OpenBabel06241423362D

 34 38  0  0  0  0  0  0  0  0999 V2000
   -3.9703   -1.4680    0.0000 C   0  0  0  0  0  0  0  0  0  0  0  0
   -3.9703   -2.4680    0.0000 N   0  0  0  0  0  0  0  0  0  0  0  0
   -3.1042   -2.9680    0.0000 C   0  0  0  0  0  0  0  0  0  0  0  0
   -2.2382   -2.4680    0.0000 C   0  0  0  0  0  0  0  0  0  0  0  0
   -2.2382   -1.4680    0.0000 N   0  0  0  0  0  0  0  0  0  0  0  0
   -3.1042   -0.9680    0.0000 C   0  0  0  0  0  0  0  0  0  0  0  0
   -3.1042    0.0320    0.0000 O   0  0  0  0  0  0  0  0  0  0  0  0
   -3.9703    0.5320    0.0000 C   0  0  0  0  0  0  0  0  0  0  0  0
   -4.8363    0.0320    0.0000 C   0  0  0  0  0  0  0  0  0  0  0  0
   -5.7023    0.5320    0.0000 C   0  0  0  0  0  0  0  0  0  0  0  0
   -5.7023    1.5320    0.0000 C   0  0  0  0  0  0  0  0  0  0  0  0
   -4.8363    2.0320    0.0000 C   0  0  0  0  0  0  0  0  0  0  0  0
   -3.9703    1.5320    0.0000 C   0  0  0  0  0  0  0  0  0  0  0  0
   -6.5683    2.0320    0.0000 C   0  0  0  0  0  0  0  0  0  0  0  0
   -7.4344    1.5320    0.0000 C   0  0  0  0  0  0  0  0  0  0  0  0
   -7.4344    0.5320    0.0000 C   0  0  0  0  0  0  0  0  0  0  0  0
   -6.5683    0.0320    0.0000 N   0  0  0  0  0  0  0  0  0  0  0  0
   -8.3004    0.0320    0.0000 C   0  0  0  0  0  0  0  0  0  0  0  0
   -8.8004   -0.8340    0.0000 F   0  0  0  0  0  0  0  0  0  0  0  0
   -7.8004   -0.8340    0.0000 F   0  0  0  0  0  0  0  0  0  0  0  0
   -9.1664    0.5320    0.0000 F   0  0  0  0  0  0  0  0  0  0  0  0
   -1.2872   -1.1590    0.0000 C   0  0  0  0  0  0  0  0  0  0  0  0
   -0.6994   -1.9680    0.0000 N   0  0  0  0  0  0  0  0  0  0  0  0
   -1.2872   -2.7770    0.0000 N   0  0  0  0  0  0  0  0  0  0  0  0
   -0.9781   -0.2079    0.0000 C   0  0  0  0  0  0  0  0  0  0  0  0
   -1.6473    0.5352    0.0000 C   0  0  0  0  0  0  0  0  0  0  0  0
   -1.3383    1.4863    0.0000 C   0  0  0  0  0  0  0  0  0  0  0  0
   -0.3601    1.6942    0.0000 C   0  0  0  0  0  0  0  0  0  0  0  0
    0.3090    0.9511    0.0000 C   0  0  0  0  0  0  0  0  0  0  0  0
    0.0000    0.0000    0.0000 C   0  0  0  0  0  0  0  0  0  0  0  0
   -0.0511    2.6453    0.0000 O   0  0  0  0  0  0  0  0  0  0  0  0
    0.9271    2.8532    0.0000 C   0  0  0  0  0  0  0  0  0  0  0  0
    1.5962    2.1100    0.0000 F   0  0  0  0  0  0  0  0  0  0  0  0
    1.2361    3.8042    0.0000 F   0  0  0  0  0  0  0  0  0  0  0  0
  1  6  2  0  0  0  0
  1  2  1  0  0  0  0
  2  3  2  0  0  0  0
  3  4  1  0  0  0  0
  4 24  2  0  0  0  0
  4  5  1  0  0  0  0
  5  6  1  0  0  0  0
  5 22  1  0  0  0  0
  6  7  1  0  0  0  0
  7  8  1  0  0  0  0
  8 13  1  0  0  0  0
  8  9  2  0  0  0  0
  9 10  1  0  0  0  0
 10 17  1  0  0  0  0
 10 11  2  0  0  0  0
 11 12  1  0  0  0  0
 11 14  1  0  0  0  0
 12 13  2  0  0  0  0
 14 15  2  0  0  0  0
 15 16  1  0  0  0  0
 16 17  2  0  0  0  0
 16 18  1  0  0  0  0
 18 19  1  0  0  0  0
 18 20  1  0  0  0  0
 18 21  1  0  0  0  0
 22 23  2  0  0  0  0
 22 25  1  0  0  0  0
 23 24  1  0  0  0  0
 25 30  1  0  0  0  0
 25 26  2  0  0  0  0
 26 27  1  0  0  0  0
 27 28  2  0  0  0  0
 28 29  1  0  0  0  0
 28 31  1  0  0  0  0
 29 30  2  0  0  0  0
 31 32  1  0  0  0  0
 32 33  1  0  0  0  0
 32 34  1  0  0  0  0
M  END
> <MW>
473.36

> <EC50>
1.629

$$$$
MMV672621
 OpenBabel06241423362D

 30 34  0  0  0  0  0  0  0  0999 V2000
   -0.7138   -4.1723    0.0000 C   0  0  0  0  0  0  0  0  0  0  0  0
    0.1522   -4.6723    0.0000 N   0  0  0  0  0  0  0  0  0  0  0  0
    1.0182   -4.1723    0.0000 C   0  0  0  0  0  0  0  0  0  0  0  0
    1.0182   -3.1723    0.0000 C   0  0  0  0  0  0  0  0  0  0  0  0
    0.1522   -2.6723    0.0000 N   0  0  0  0  0  0  0  0  0  0  0  0
   -0.7138   -3.1723    0.0000 C   0  0  0  0  0  0  0  0  0  0  0  0
   -1.5798   -2.6723    0.0000 O   0  0  0  0  0  0  0  0  0  0  0  0
   -2.4459   -3.1723    0.0000 C   0  0  0  0  0  0  0  0  0  0  0  0
   -2.4459   -4.1723    0.0000 C   0  0  0  0  0  0  0  0  0  0  0  0
   -3.3119   -4.6723    0.0000 C   0  0  0  0  0  0  0  0  0  0  0  0
   -4.1779   -4.1723    0.0000 C   0  0  0  0  0  0  0  0  0  0  0  0
   -4.1779   -3.1723    0.0000 C   0  0  0  0  0  0  0  0  0  0  0  0
   -3.3119   -2.6723    0.0000 C   0  0  0  0  0  0  0  0  0  0  0  0
   -5.1290   -2.8633    0.0000 O   0  0  0  0  0  0  0  0  0  0  0  0
   -5.7168   -3.6723    0.0000 N   0  0  0  0  0  0  0  0  0  0  0  0
   -5.1290   -4.4814    0.0000 C   0  0  0  0  0  0  0  0  0  0  0  0
   -5.4380   -5.4324    0.0000 C   0  0  0  0  0  0  0  0  0  0  0  0
    0.3601   -1.6942    0.0000 C   0  0  0  0  0  0  0  0  0  0  0  0
    1.3546   -1.5897    0.0000 N   0  0  0  0  0  0  0  0  0  0  0  0
    1.7614   -2.5032    0.0000 N   0  0  0  0  0  0  0  0  0  0  0  0
   -0.3090   -0.9511    0.0000 C   0  0  0  0  0  0  0  0  0  0  0  0
   -1.2872   -1.1590    0.0000 C   0  0  0  0  0  0  0  0  0  0  0  0
   -1.9563   -0.4158    0.0000 C   0  0  0  0  0  0  0  0  0  0  0  0
   -1.6473    0.5352    0.0000 C   0  0  0  0  0  0  0  0  0  0  0  0
   -0.6691    0.7431    0.0000 C   0  0  0  0  0  0  0  0  0  0  0  0
    0.0000    0.0000    0.0000 C   0  0  0  0  0  0  0  0  0  0  0  0
   -2.3164    1.2784    0.0000 O   0  0  0  0  0  0  0  0  0  0  0  0
   -2.0074    2.2294    0.0000 C   0  0  0  0  0  0  0  0  0  0  0  0
   -1.0292    2.4373    0.0000 F   0  0  0  0  0  0  0  0  0  0  0  0
   -2.6765    2.9726    0.0000 F   0  0  0  0  0  0  0  0  0  0  0  0
  1  6  2  0  0  0  0
  1  2  1  0  0  0  0
  2  3  2  0  0  0  0
  3  4  1  0  0  0  0
  4 20  2  0  0  0  0
  4  5  1  0  0  0  0
  5  6  1  0  0  0  0
  5 18  1  0  0  0  0
  6  7  1  0  0  0  0
  7  8  1  0  0  0  0
  8 13  1  0  0  0  0
  8  9  2  0  0  0  0
  9 10  1  0  0  0  0
 10 11  2  0  0  0  0
 11 16  1  0  0  0  0
 11 12  1  0  0  0  0
 12 13  2  0  0  0  0
 12 14  1  0  0  0  0
 14 15  1  0  0  0  0
 15 16  2  0  0  0  0
 16 17  1  0  0  0  0
 18 19  2  0  0  0  0
 18 21  1  0  0  0  0
 19 20  1  0  0  0  0
 21 26  1  0  0  0  0
 21 22  2  0  0  0  0
 22 23  1  0  0  0  0
 23 24  2  0  0  0  0
 24 25  1  0  0  0  0
 24 27  1  0  0  0  0
 25 26  2  0  0  0  0
 27 28  1  0  0  0  0
 28 29  1  0  0  0  0
 28 30  1  0  0  0  0
M  END
> <MW>
409.35

> <EC50>
1.928

$$$$
MMV672622
 OpenBabel06241423362D

 33 37  0  0  0  0  0  0  0  0999 V2000
    0.7138    4.1723    0.0000 C   0  0  0  0  0  0  0  0  0  0  0  0
   -0.1522    4.6723    0.0000 N   0  0  0  0  0  0  0  0  0  0  0  0
   -1.0182    4.1723    0.0000 C   0  0  0  0  0  0  0  0  0  0  0  0
   -1.0182    3.1723    0.0000 C   0  0  0  0  0  0  0  0  0  0  0  0
   -0.1522    2.6723    0.0000 N   0  0  0  0  0  0  0  0  0  0  0  0
    0.7138    3.1723    0.0000 C   0  0  0  0  0  0  0  0  0  0  0  0
    1.5798    2.6723    0.0000 O   0  0  0  0  0  0  0  0  0  0  0  0
    2.4459    3.1723    0.0000 C   0  0  0  0  0  0  0  0  0  0  0  0
    2.4459    4.1723    0.0000 C   0  0  0  0  0  0  0  0  0  0  0  0
    3.3119    4.6723    0.0000 C   0  0  0  0  0  0  0  0  0  0  0  0
    4.1779    4.1723    0.0000 C   0  0  0  0  0  0  0  0  0  0  0  0
    4.1779    3.1723    0.0000 C   0  0  0  0  0  0  0  0  0  0  0  0
    3.3119    2.6723    0.0000 C   0  0  0  0  0  0  0  0  0  0  0  0
    5.0440    2.6723    0.0000 O   0  0  0  0  0  0  0  0  0  0  0  0
    5.9100    3.1723    0.0000 C   0  0  0  0  0  0  0  0  0  0  0  0
    5.9100    4.1723    0.0000 C   0  0  0  0  0  0  0  0  0  0  0  0
    5.0440    4.6723    0.0000 C   0  0  0  0  0  0  0  0  0  0  0  0
    5.0440    5.6723    0.0000 C   0  0  0  0  0  0  0  0  0  0  0  0
    6.4100    2.3063    0.0000 C   0  0  0  0  0  0  0  0  0  0  0  0
    6.9100    3.1723    0.0000 C   0  0  0  0  0  0  0  0  0  0  0  0
   -0.3601    1.6942    0.0000 C   0  0  0  0  0  0  0  0  0  0  0  0
   -1.3546    1.5897    0.0000 N   0  0  0  0  0  0  0  0  0  0  0  0
   -1.7614    2.5032    0.0000 N   0  0  0  0  0  0  0  0  0  0  0  0
    0.3090    0.9511    0.0000 C   0  0  0  0  0  0  0  0  0  0  0  0
    1.2872    1.1590    0.0000 C   0  0  0  0  0  0  0  0  0  0  0  0
    1.9563    0.4158    0.0000 C   0  0  0  0  0  0  0  0  0  0  0  0
    1.6473   -0.5352    0.0000 C   0  0  0  0  0  0  0  0  0  0  0  0
    0.6691   -0.7431    0.0000 C   0  0  0  0  0  0  0  0  0  0  0  0
    0.0000    0.0000    0.0000 C   0  0  0  0  0  0  0  0  0  0  0  0
    2.3164   -1.2784    0.0000 O   0  0  0  0  0  0  0  0  0  0  0  0
    3.2946   -1.0705    0.0000 C   0  0  0  0  0  0  0  0  0  0  0  0
    3.9637   -1.8136    0.0000 F   0  0  0  0  0  0  0  0  0  0  0  0
    3.6036   -0.1194    0.0000 F   0  0  0  0  0  0  0  0  0  0  0  0
  1  6  2  0  0  0  0
  1  2  1  0  0  0  0
  2  3  2  0  0  0  0
  3  4  1  0  0  0  0
  4 23  2  0  0  0  0
  4  5  1  0  0  0  0
  5  6  1  0  0  0  0
  5 21  1  0  0  0  0
  6  7  1  0  0  0  0
  7  8  1  0  0  0  0
  8 13  1  0  0  0  0
  8  9  2  0  0  0  0
  9 10  1  0  0  0  0
 10 11  2  0  0  0  0
 11 17  1  0  0  0  0
 11 12  1  0  0  0  0
 12 13  2  0  0  0  0
 12 14  1  0  0  0  0
 14 15  1  0  0  0  0
 15 16  1  0  0  0  0
 15 19  1  0  0  0  0
 15 20  1  0  0  0  0
 16 17  2  0  0  0  0
 17 18  1  0  0  0  0
 21 22  2  0  0  0  0
 21 24  1  0  0  0  0
 22 23  1  0  0  0  0
 24 29  1  0  0  0  0
 24 25  2  0  0  0  0
 25 26  1  0  0  0  0
 26 27  2  0  0  0  0
 27 28  1  0  0  0  0
 27 30  1  0  0  0  0
 28 29  2  0  0  0  0
 30 31  1  0  0  0  0
 31 32  1  0  0  0  0
 31 33  1  0  0  0  0
M  END
> <MW>
450.44

> <EC50>
1.822

$$$$
MMV672623
 OpenBabel06241423362D

 30 34  0  0  0  0  0  0  0  0999 V2000
   -0.7138   -4.1723    0.0000 C   0  0  0  0  0  0  0  0  0  0  0  0
    0.1522   -4.6723    0.0000 N   0  0  0  0  0  0  0  0  0  0  0  0
    1.0182   -4.1723    0.0000 C   0  0  0  0  0  0  0  0  0  0  0  0
    1.0182   -3.1723    0.0000 C   0  0  0  0  0  0  0  0  0  0  0  0
    0.1522   -2.6723    0.0000 N   0  0  0  0  0  0  0  0  0  0  0  0
   -0.7138   -3.1723    0.0000 C   0  0  0  0  0  0  0  0  0  0  0  0
   -1.5798   -2.6723    0.0000 O   0  0  0  0  0  0  0  0  0  0  0  0
   -2.4459   -3.1723    0.0000 C   0  0  0  0  0  0  0  0  0  0  0  0
   -2.4459   -4.1723    0.0000 C   0  0  0  0  0  0  0  0  0  0  0  0
   -3.3119   -4.6723    0.0000 C   0  0  0  0  0  0  0  0  0  0  0  0
   -4.1779   -4.1723    0.0000 C   0  0  0  0  0  0  0  0  0  0  0  0
   -4.1779   -3.1723    0.0000 C   0  0  0  0  0  0  0  0  0  0  0  0
   -3.3119   -2.6723    0.0000 C   0  0  0  0  0  0  0  0  0  0  0  0
   -5.1290   -2.8633    0.0000 N   0  0  0  0  0  0  0  0  0  0  0  0
   -5.7168   -3.6723    0.0000 N   0  0  0  0  0  0  0  0  0  0  0  0
   -5.1290   -4.4814    0.0000 C   0  0  0  0  0  0  0  0  0  0  0  0
   -5.4380   -1.9123    0.0000 C   0  0  0  0  0  0  0  0  0  0  0  0
    0.3601   -1.6942    0.0000 C   0  0  0  0  0  0  0  0  0  0  0  0
    1.3546   -1.5897    0.0000 N   0  0  0  0  0  0  0  0  0  0  0  0
    1.7614   -2.5032    0.0000 N   0  0  0  0  0  0  0  0  0  0  0  0
   -0.3090   -0.9511    0.0000 C   0  0  0  0  0  0  0  0  0  0  0  0
   -1.2872   -1.1590    0.0000 C   0  0  0  0  0  0  0  0  0  0  0  0
   -1.9563   -0.4158    0.0000 C   0  0  0  0  0  0  0  0  0  0  0  0
   -1.6473    0.5352    0.0000 C   0  0  0  0  0  0  0  0  0  0  0  0
   -0.6691    0.7431    0.0000 C   0  0  0  0  0  0  0  0  0  0  0  0
    0.0000    0.0000    0.0000 C   0  0  0  0  0  0  0  0  0  0  0  0
   -2.3164    1.2784    0.0000 O   0  0  0  0  0  0  0  0  0  0  0  0
   -2.0074    2.2294    0.0000 C   0  0  0  0  0  0  0  0  0  0  0  0
   -1.0292    2.4373    0.0000 F   0  0  0  0  0  0  0  0  0  0  0  0
   -2.6765    2.9726    0.0000 F   0  0  0  0  0  0  0  0  0  0  0  0
  1  6  2  0  0  0  0
  1  2  1  0  0  0  0
  2  3  2  0  0  0  0
  3  4  1  0  0  0  0
  4 20  2  0  0  0  0
  4  5  1  0  0  0  0
  5  6  1  0  0  0  0
  5 18  1  0  0  0  0
  6  7  1  0  0  0  0
  7  8  1  0  0  0  0
  8 13  1  0  0  0  0
  8  9  2  0  0  0  0
  9 10  1  0  0  0  0
 10 11  2  0  0  0  0
 11 16  1  0  0  0  0
 11 12  1  0  0  0  0
 12 13  2  0  0  0  0
 12 14  1  0  0  0  0
 14 15  1  0  0  0  0
 14 17  1  0  0  0  0
 15 16  2  0  0  0  0
 18 19  2  0  0  0  0
 18 21  1  0  0  0  0
 19 20  1  0  0  0  0
 21 26  1  0  0  0  0
 21 22  2  0  0  0  0
 22 23  1  0  0  0  0
 23 24  2  0  0  0  0
 24 25  1  0  0  0  0
 24 27  1  0  0  0  0
 25 26  2  0  0  0  0
 27 28  1  0  0  0  0
 28 29  1  0  0  0  0
 28 30  1  0  0  0  0
M  END
> <MW>
408.37

> <EC50>
10

$$$$
MMV672624
 OpenBabel06241423362D

 32 36  0  0  1  0  0  0  0  0999 V2000
    0.6104   -4.1887    0.0000 C    0  0  0  0  0  0  0  0  0  0  0  0
    1.5886   -4.3966    0.0000 N    0  0  0  0  0  0  0  0  0  0  0  0
    2.2577   -3.6535    0.0000 C    0  0  0  0  0  0  0  0  0  0  0  0
    1.9487   -2.7024    0.0000 C    0  0  0  0  0  0  0  0  0  0  0  0
    0.9706   -2.4945    0.0000 N    0  0  0  0  0  0  0  0  0  0  0  0
    0.3014   -3.2377    0.0000 C    0  0  0  0  0  0  0  0  0  0  0  0
   -0.6767   -3.0298    0.0000 C    0  0  0  0  0  0  0  0  0  0  0  0
   -0.9857   -2.0787    0.0000 O    0  0  0  0  0  0  0  0  0  0  0  0
   -1.3459   -3.7729    0.0000 N    0  0  0  0  0  0  0  0  0  0  0  0
   -2.3240   -3.5650    0.0000 C    0  0  3  0  0  0  0  0  0  0  0  0
   -3.0671   -4.2341    0.0000 C    0  0  0  0  0  0  0  0  0  0  0  0
   -3.9332   -3.7341    0.0000 C    0  0  0  0  0  0  0  0  0  0  0  0
   -3.7253   -2.7560    0.0000 C    0  0  0  0  0  0  0  0  0  0  0  0
   -2.7307   -2.6514    0.0000 C    0  0  0  0  0  0  0  0  0  0  0  0
   -2.3240   -1.7379    0.0000 C    0  0  0  0  0  0  0  0  0  0  0  0
   -2.9118   -0.9289    0.0000 C    0  0  0  0  0  0  0  0  0  0  0  0
   -3.9063   -1.0334    0.0000 C    0  0  0  0  0  0  0  0  0  0  0  0
   -4.3130   -1.9470    0.0000 C    0  0  0  0  0  0  0  0  0  0  0  0
   -4.4941   -0.2244    0.0000 Cl   0  0  0  0  0  0  0  0  0  0  0  0
    0.8660   -1.5000    0.0000 C    0  0  0  0  0  0  0  0  0  0  0  0
    1.7796   -1.0933    0.0000 N    0  0  0  0  0  0  0  0  0  0  0  0
    2.4487   -1.8364    0.0000 N    0  0  0  0  0  0  0  0  0  0  0  0
    0.0000   -1.0000    0.0000 C    0  0  0  0  0  0  0  0  0  0  0  0
   -0.8660   -1.5000    0.0000 C    0  0  0  0  0  0  0  0  0  0  0  0
   -1.7321   -1.0000    0.0000 C    0  0  0  0  0  0  0  0  0  0  0  0
   -1.7321    0.0000    0.0000 C    0  0  0  0  0  0  0  0  0  0  0  0
   -0.8660    0.5000    0.0000 C    0  0  0  0  0  0  0  0  0  0  0  0
    0.0000    0.0000    0.0000 C    0  0  0  0  0  0  0  0  0  0  0  0
   -2.5981    0.5000    0.0000 O    0  0  0  0  0  0  0  0  0  0  0  0
   -2.5981    1.5000    0.0000 C    0  0  0  0  0  0  0  0  0  0  0  0
   -1.7321    2.0000    0.0000 F    0  0  0  0  0  0  0  0  0  0  0  0
   -3.4641    2.0000    0.0000 F    0  0  0  0  0  0  0  0  0  0  0  0
  1  6  2  0  0  0  0
  1  2  1  0  0  0  0
  2  3  2  0  0  0  0
  3  4  1  0  0  0  0
  4 22  2  0  0  0  0
  4  5  1  0  0  0  0
  5  6  1  0  0  0  0
  5 20  1  0  0  0  0
  6  7  1  0  0  0  0
  7  8  2  0  0  0  0
  7  9  1  0  0  0  0
  9 10  1  0  0  0  0
 10 14  1  0  0  0  0
 10 11  1  0  0  0  0
 11 12  1  0  0  0  0
 12 13  1  0  0  0  0
 13 18  1  0  0  0  0
 13 14  2  0  0  0  0
 14 15  1  0  0  0  0
 15 16  2  0  0  0  0
 16 17  1  0  0  0  0
 17 18  2  0  0  0  0
 17 19  1  0  0  0  0
 20 21  2  0  0  0  0
 20 23  1  0  0  0  0
 21 22  1  0  0  0  0
 23 28  1  0  0  0  0
 23 24  2  0  0  0  0
 24 25  1  0  0  0  0
 25 26  2  0  0  0  0
 26 27  1  0  0  0  0
 26 29  1  0  0  0  0
 27 28  2  0  0  0  0
 29 30  1  0  0  0  0
 30 31  1  0  0  0  0
 30 32  1  0  0  0  0
M  END
> <MW>
455.85

> <EC50>
0.5468

$$$$
MMV672625
 OpenBabel06241423362D

 36 40  0  0  0  0  0  0  0  0999 V2000
    5.5276    2.6831    0.0000 C   0  0  0  0  0  0  0  0  0  0  0  0
    5.5276    3.6587    0.0000 N   0  0  0  0  0  0  0  0  0  0  0  0
    4.6827    4.1465    0.0000 C   0  0  0  0  0  0  0  0  0  0  0  0
    3.8377    3.6587    0.0000 C   0  0  0  0  0  0  0  0  0  0  0  0
    3.8377    2.6831    0.0000 N   0  0  0  0  0  0  0  0  0  0  0  0
    4.6827    2.1953    0.0000 C   0  0  0  0  0  0  0  0  0  0  0  0
    4.6827    0.2440    0.0000 C   0  0  0  0  0  0  0  0  0  0  0  0
    3.8377   -0.2438    0.0000 O   0  0  0  0  0  0  0  0  0  0  0  0
    5.5276   -0.2438    0.0000 N   0  0  0  0  0  0  0  0  0  0  0  0
    5.5276   -1.2194    0.0000 C   0  0  0  0  0  0  0  0  0  0  0  0
    6.3725   -1.7072    0.0000 C   0  0  0  0  0  0  0  0  0  0  0  0
    6.3725   -2.6828    0.0000 C   0  0  0  0  0  0  0  0  0  0  0  0
    5.5276   -3.1706    0.0000 N   0  0  0  0  0  0  0  0  0  0  0  0
    4.6827   -2.6828    0.0000 C   0  0  0  0  0  0  0  0  0  0  0  0
    4.6827   -1.7072    0.0000 C   0  0  0  0  0  0  0  0  0  0  0  0
    3.8377   -3.1706    0.0000 C   0  0  0  0  0  0  0  0  0  0  0  0
    3.3499   -4.0155    0.0000 F   0  0  0  0  0  0  0  0  0  0  0  0
    4.3256   -4.0155    0.0000 F   0  0  0  0  0  0  0  0  0  0  0  0
    2.9928   -2.6828    0.0000 F   0  0  0  0  0  0  0  0  0  0  0  0
    2.9099    2.3816    0.0000 C   0  0  0  0  0  0  0  0  0  0  0  0
    2.3364    3.1709    0.0000 N   0  0  0  0  0  0  0  0  0  0  0  0
    2.9099    3.9602    0.0000 N   0  0  0  0  0  0  0  0  0  0  0  0
    2.6084    1.4537    0.0000 C   0  0  0  0  0  0  0  0  0  0  0  0
    3.1819    0.6644    0.0000 C   0  0  0  0  0  0  0  0  0  0  0  0
    2.6084   -0.1248    0.0000 N   0  0  0  0  0  0  0  0  0  0  0  0
    1.6805    0.1766    0.0000 N   0  0  0  0  0  0  0  0  0  0  0  0
    1.6805    1.1522    0.0000 C   0  0  0  0  0  0  0  0  0  0  0  0
    0.8913    1.7257    0.0000 C   0  0  0  0  0  0  0  0  0  0  0  0
    0.8913   -0.3968    0.0000 C   0  0  0  0  0  0  0  0  0  0  0  0
    0.9932   -1.3671    0.0000 C   0  0  0  0  0  0  0  0  0  0  0  0
    0.2040   -1.9405    0.0000 C   0  0  0  0  0  0  0  0  0  0  0  0
   -0.6873   -1.5437    0.0000 C   0  0  0  0  0  0  0  0  0  0  0  0
   -0.7893   -0.5734    0.0000 C   0  0  0  0  0  0  0  0  0  0  0  0
    0.0000    0.0000    0.0000 C   0  0  0  0  0  0  0  0  0  0  0  0
   -1.4766   -2.1172    0.0000 F   0  0  0  0  0  0  0  0  0  0  0  0
    4.1575    0.6644    0.0000 C   0  0  0  0  0  0  0  0  0  0  0  0
  1  6  2  0  0  0  0
  1  2  1  0  0  0  0
  2  3  2  0  0  0  0
  3  4  1  0  0  0  0
  4 22  2  0  0  0  0
  4  5  1  0  0  0  0
  5  6  1  0  0  0  0
  5 20  1  0  0  0  0
  6  7  1  0  0  0  0
  7  8  2  0  0  0  0
  7  9  1  0  0  0  0
  9 10  1  0  0  0  0
 10 15  1  0  0  0  0
 10 11  2  0  0  0  0
 11 12  1  0  0  0  0
 12 13  2  0  0  0  0
 13 14  1  0  0  0  0
 14 15  2  0  0  0  0
 14 16  1  0  0  0  0
 16 17  1  0  0  0  0
 16 18  1  0  0  0  0
 16 19  1  0  0  0  0
 20 21  2  0  0  0  0
 20 23  1  0  0  0  0
 21 22  1  0  0  0  0
 23 27  2  0  0  0  0
 23 24  1  0  0  0  0
 24 25  2  0  0  0  0
 24 36  1  0  0  0  0
 25 26  1  0  0  0  0
 26 27  1  0  0  0  0
 26 29  1  0  0  0  0
 27 28  1  0  0  0  0
 29 34  1  0  0  0  0
 29 30  2  0  0  0  0
 30 31  1  0  0  0  0
 31 32  2  0  0  0  0
 32 33  1  0  0  0  0
 32 35  1  0  0  0  0
 33 34  2  0  0  0  0
M  END
> <MW>
496.43

> <EC50>
10

$$$$
MMV672626
 OpenBabel06241423362D

 36 40  0  0  1  0  0  0  0  0999 V2000
    0.8056    1.3953    0.0000 C   0  0  0  0  0  0  0  0  0  0  0  0
    0.8056    2.3256    0.0000 C   0  0  0  0  0  0  0  0  0  0  0  0
    1.6112    1.8605    0.0000 C   0  0  0  0  0  0  0  0  0  0  0  0
   -2.4168   -0.4651    0.0000 C   0  0  3  0  0  0  0  0  0  0  0  0
   -3.2224    0.0000    0.0000 O   0  0  0  0  0  0  0  0  0  0  0  0
   -4.0280   -0.4651    0.0000 C   0  0  0  0  0  0  0  0  0  0  0  0
   -4.0280   -1.3953    0.0000 C   0  0  0  0  0  0  0  0  0  0  0  0
   -4.8336   -1.8605    0.0000 N   0  0  0  0  0  0  0  0  0  0  0  0
   -5.6392   -1.3953    0.0000 C   0  0  0  0  0  0  0  0  0  0  0  0
   -5.6392   -0.4651    0.0000 C   0  0  0  0  0  0  0  0  0  0  0  0
   -4.8336    0.0000    0.0000 N   0  0  0  0  0  0  0  0  0  0  0  0
   -5.0270    0.9099    0.0000 C   0  0  0  0  0  0  0  0  0  0  0  0
   -5.9522    1.0071    0.0000 N   0  0  0  0  0  0  0  0  0  0  0  0
   -6.3305    0.1573    0.0000 N   0  0  0  0  0  0  0  0  0  0  0  0
   -4.4046    1.6012    0.0000 C   0  0  0  0  0  0  0  0  0  0  0  0
   -4.6920    2.4859    0.0000 C   0  0  0  0  0  0  0  0  0  0  0  0
   -4.0696    3.1772    0.0000 C   0  0  0  0  0  0  0  0  0  0  0  0
   -3.1597    2.9838    0.0000 C   0  0  0  0  0  0  0  0  0  0  0  0
   -2.8722    2.0991    0.0000 C   0  0  0  0  0  0  0  0  0  0  0  0
   -3.4947    1.4078    0.0000 C   0  0  0  0  0  0  0  0  0  0  0  0
   -2.5372    3.6751    0.0000 O   0  0  0  0  0  0  0  0  0  0  0  0
   -1.6273    3.4817    0.0000 C   0  0  0  0  0  0  0  0  0  0  0  0
   -1.3399    2.5970    0.0000 F   0  0  0  0  0  0  0  0  0  0  0  0
   -1.0049    4.1730    0.0000 F   0  0  0  0  0  0  0  0  0  0  0  0
   -2.4168   -1.3953    0.0000 C   0  0  0  0  0  0  0  0  0  0  0  0
   -1.9517   -2.2010    0.0000 F   0  0  0  0  0  0  0  0  0  0  0  0
   -1.4866   -1.3953    0.0000 F   0  0  0  0  0  0  0  0  0  0  0  0
   -3.2224   -1.8605    0.0000 F   0  0  0  0  0  0  0  0  0  0  0  0
    0.8056    0.4651    0.0000 C   0  0  0  0  0  0  0  0  0  0  0  0
    1.6112    0.0000    0.0000 C   0  0  0  0  0  0  0  0  0  0  0  0
    1.6112   -0.9302    0.0000 C   0  0  0  0  0  0  0  0  0  0  0  0
    0.8056   -1.3953    0.0000 C   0  0  0  0  0  0  0  0  0  0  0  0
    0.0000   -0.9302    0.0000 C   0  0  0  0  0  0  0  0  0  0  0  0
    0.0000    0.0000    0.0000 C   0  0  0  0  0  0  0  0  0  0  0  0
   -0.8056   -1.3953    0.0000 F   0  0  0  0  0  0  0  0  0  0  0  0
    0.8056   -2.3256    0.0000 F   0  0  0  0  0  0  0  0  0  0  0  0
  1  3  1  0  0  0  0
  1  2  1  0  0  0  0
  1  4  1  0  0  0  0
  1 29  1  0  0  0  0
  2  3  1  0  0  0  0
  4  5  1  0  0  0  0
  4 25  1  0  0  0  0
  5  6  1  0  0  0  0
  6 11  1  0  0  0  0
  6  7  2  0  0  0  0
  7  8  1  0  0  0  0
  8  9  2  0  0  0  0
  9 10  1  0  0  0  0
 10 14  2  0  0  0  0
 10 11  1  0  0  0  0
 11 12  1  0  0  0  0
 12 13  2  0  0  0  0
 12 15  1  0  0  0  0
 13 14  1  0  0  0  0
 15 20  1  0  0  0  0
 15 16  2  0  0  0  0
 16 17  1  0  0  0  0
 17 18  2  0  0  0  0
 18 19  1  0  0  0  0
 18 21  1  0  0  0  0
 19 20  2  0  0  0  0
 21 22  1  0  0  0  0
 22 23  1  0  0  0  0
 22 24  1  0  0  0  0
 25 26  1  0  0  0  0
 25 27  1  0  0  0  0
 25 28  1  0  0  0  0
 29 34  1  0  0  0  0
 29 30  2  0  0  0  0
 30 31  1  0  0  0  0
 31 32  2  0  0  0  0
 32 33  1  0  0  0  0
 32 36  1  0  0  0  0
 33 34  2  0  0  0  0
 33 35  1  0  0  0  0
M  END
> <MW>
512.38

> <EC50>
10

$$$$
MMV672686
 OpenBabel06241423362D

 30 34  0  0  0  0  0  0  0  0999 V2000
   -0.7138   -4.1723    0.0000 C   0  0  0  0  0  0  0  0  0  0  0  0
    0.1522   -4.6723    0.0000 N   0  0  0  0  0  0  0  0  0  0  0  0
    1.0182   -4.1723    0.0000 C   0  0  0  0  0  0  0  0  0  0  0  0
    1.0182   -3.1723    0.0000 C   0  0  0  0  0  0  0  0  0  0  0  0
    0.1522   -2.6723    0.0000 N   0  0  0  0  0  0  0  0  0  0  0  0
   -0.7138   -3.1723    0.0000 C   0  0  0  0  0  0  0  0  0  0  0  0
   -1.5798   -2.6723    0.0000 O   0  0  0  0  0  0  0  0  0  0  0  0
   -2.4459   -3.1723    0.0000 C   0  0  0  0  0  0  0  0  0  0  0  0
   -2.4459   -4.1723    0.0000 C   0  0  0  0  0  0  0  0  0  0  0  0
   -3.3119   -4.6723    0.0000 C   0  0  0  0  0  0  0  0  0  0  0  0
   -4.1779   -4.1723    0.0000 C   0  0  0  0  0  0  0  0  0  0  0  0
   -4.1779   -3.1723    0.0000 C   0  0  0  0  0  0  0  0  0  0  0  0
   -3.3119   -2.6723    0.0000 C   0  0  0  0  0  0  0  0  0  0  0  0
   -5.1290   -2.8633    0.0000 N   0  0  0  0  0  0  0  0  0  0  0  0
   -5.7168   -3.6723    0.0000 N   0  0  0  0  0  0  0  0  0  0  0  0
   -5.1290   -4.4814    0.0000 C   0  0  0  0  0  0  0  0  0  0  0  0
   -6.7168   -3.6723    0.0000 C   0  0  0  0  0  0  0  0  0  0  0  0
    0.3601   -1.6942    0.0000 C   0  0  0  0  0  0  0  0  0  0  0  0
    1.3546   -1.5897    0.0000 N   0  0  0  0  0  0  0  0  0  0  0  0
    1.7614   -2.5032    0.0000 N   0  0  0  0  0  0  0  0  0  0  0  0
   -0.3090   -0.9511    0.0000 C   0  0  0  0  0  0  0  0  0  0  0  0
   -1.2872   -1.1590    0.0000 C   0  0  0  0  0  0  0  0  0  0  0  0
   -1.9563   -0.4158    0.0000 C   0  0  0  0  0  0  0  0  0  0  0  0
   -1.6473    0.5352    0.0000 C   0  0  0  0  0  0  0  0  0  0  0  0
   -0.6691    0.7431    0.0000 C   0  0  0  0  0  0  0  0  0  0  0  0
    0.0000    0.0000    0.0000 C   0  0  0  0  0  0  0  0  0  0  0  0
   -2.3164    1.2784    0.0000 O   0  0  0  0  0  0  0  0  0  0  0  0
   -2.0074    2.2294    0.0000 C   0  0  0  0  0  0  0  0  0  0  0  0
   -1.0292    2.4373    0.0000 F   0  0  0  0  0  0  0  0  0  0  0  0
   -2.6765    2.9726    0.0000 F   0  0  0  0  0  0  0  0  0  0  0  0
  1  6  2  0  0  0  0
  1  2  1  0  0  0  0
  2  3  2  0  0  0  0
  3  4  1  0  0  0  0
  4 20  2  0  0  0  0
  4  5  1  0  0  0  0
  5  6  1  0  0  0  0
  5 18  1  0  0  0  0
  6  7  1  0  0  0  0
  7  8  1  0  0  0  0
  8 13  2  0  0  0  0
  8  9  1  0  0  0  0
  9 10  2  0  0  0  0
 10 11  1  0  0  0  0
 11 16  2  0  0  0  0
 11 12  1  0  0  0  0
 12 13  1  0  0  0  0
 12 14  2  0  0  0  0
 14 15  1  0  0  0  0
 15 16  1  0  0  0  0
 15 17  1  0  0  0  0
 18 19  2  0  0  0  0
 18 21  1  0  0  0  0
 19 20  1  0  0  0  0
 21 26  1  0  0  0  0
 21 22  2  0  0  0  0
 22 23  1  0  0  0  0
 23 24  2  0  0  0  0
 24 25  1  0  0  0  0
 24 27  1  0  0  0  0
 25 26  2  0  0  0  0
 27 28  1  0  0  0  0
 28 29  1  0  0  0  0
 28 30  1  0  0  0  0
M  END
> <MW>
408.37

> <EC50>
6.203

$$$$
MMV672687
 OpenBabel06241423362D

 31 34  0  0  1  0  0  0  0  0999 V2000
   -0.8660    1.5000    0.0000 C   0  0  3  0  0  0  0  0  0  0  0  0
   -1.7321    1.0000    0.0000 C   0  0  0  0  0  0  0  0  0  0  0  0
   -2.5981    1.5000    0.0000 O   0  0  0  0  0  0  0  0  0  0  0  0
   -3.4641    1.0000    0.0000 C   0  0  0  0  0  0  0  0  0  0  0  0
   -3.4641    0.0000    0.0000 C   0  0  0  0  0  0  0  0  0  0  0  0
   -4.3301   -0.5000    0.0000 N   0  0  0  0  0  0  0  0  0  0  0  0
   -5.1962    0.0000    0.0000 C   0  0  0  0  0  0  0  0  0  0  0  0
   -5.1962    1.0000    0.0000 C   0  0  0  0  0  0  0  0  0  0  0  0
   -4.3301    1.5000    0.0000 N   0  0  0  0  0  0  0  0  0  0  0  0
   -4.5380    2.4781    0.0000 C   0  0  0  0  0  0  0  0  0  0  0  0
   -5.5326    2.5827    0.0000 N   0  0  0  0  0  0  0  0  0  0  0  0
   -5.9393    1.6691    0.0000 N   0  0  0  0  0  0  0  0  0  0  0  0
   -3.8689    3.2213    0.0000 C   0  0  0  0  0  0  0  0  0  0  0  0
   -2.8908    3.0134    0.0000 C   0  0  0  0  0  0  0  0  0  0  0  0
   -2.2216    3.7565    0.0000 C   0  0  0  0  0  0  0  0  0  0  0  0
   -2.5306    4.7076    0.0000 C   0  0  0  0  0  0  0  0  0  0  0  0
   -3.5088    4.9155    0.0000 C   0  0  0  0  0  0  0  0  0  0  0  0
   -4.1779    4.1723    0.0000 C   0  0  0  0  0  0  0  0  0  0  0  0
   -1.8615    5.4507    0.0000 O   0  0  0  0  0  0  0  0  0  0  0  0
   -2.1705    6.4018    0.0000 C   0  0  0  0  0  0  0  0  0  0  0  0
   -3.1487    6.6097    0.0000 F   0  0  0  0  0  0  0  0  0  0  0  0
   -1.5014    7.1449    0.0000 F   0  0  0  0  0  0  0  0  0  0  0  0
    0.0000    1.0000    0.0000 C   0  0  0  0  0  0  0  0  0  0  0  0
    0.8660    1.5000    0.0000 C   0  0  0  0  0  0  0  0  0  0  0  0
    1.7321    1.0000    0.0000 C   0  0  0  0  0  0  0  0  0  0  0  0
    1.7321    0.0000    0.0000 C   0  0  0  0  0  0  0  0  0  0  0  0
    0.8660   -0.5000    0.0000 C   0  0  0  0  0  0  0  0  0  0  0  0
    0.0000    0.0000    0.0000 C   0  0  0  0  0  0  0  0  0  0  0  0
    0.8660   -1.5000    0.0000 F   0  0  0  0  0  0  0  0  0  0  0  0
    2.5981   -0.5000    0.0000 F   0  0  0  0  0  0  0  0  0  0  0  0
   -0.8660    2.5000    0.0000 O   0  0  0  0  0  0  0  0  0  0  0  0
  1  2  1  0  0  0  0
  1 23  1  0  0  0  0
  1 31  1  0  0  0  0
  2  3  1  0  0  0  0
  3  4  1  0  0  0  0
  4  9  1  0  0  0  0
  4  5  2  0  0  0  0
  5  6  1  0  0  0  0
  6  7  2  0  0  0  0
  7  8  1  0  0  0  0
  8 12  2  0  0  0  0
  8  9  1  0  0  0  0
  9 10  1  0  0  0  0
 10 11  2  0  0  0  0
 10 13  1  0  0  0  0
 11 12  1  0  0  0  0
 13 18  1  0  0  0  0
 13 14  2  0  0  0  0
 14 15  1  0  0  0  0
 15 16  2  0  0  0  0
 16 17  1  0  0  0  0
 16 19  1  0  0  0  0
 17 18  2  0  0  0  0
 19 20  1  0  0  0  0
 20 21  1  0  0  0  0
 20 22  1  0  0  0  0
 23 28  1  0  0  0  0
 23 24  2  0  0  0  0
 24 25  1  0  0  0  0
 25 26  2  0  0  0  0
 26 27  1  0  0  0  0
 26 30  1  0  0  0  0
 27 28  2  0  0  0  0
 27 29  1  0  0  0  0
M  END
> <MW>
434.35

> <EC50>
0.124

$$$$
MMV672688
 OpenBabel06241423362D

 31 35  0  0  0  0  0  0  0  0999 V2000
    0.5733    3.0134    0.0000 C   0  0  0  0  0  0  0  0  0  0  0  0
    1.4394    3.5134    0.0000 N   0  0  0  0  0  0  0  0  0  0  0  0
    2.3054    3.0134    0.0000 C   0  0  0  0  0  0  0  0  0  0  0  0
    2.3054    2.0134    0.0000 C   0  0  0  0  0  0  0  0  0  0  0  0
    3.0485    1.3443    0.0000 N   0  0  0  0  0  0  0  0  0  0  0  0
    2.6418    0.4307    0.0000 N   0  0  0  0  0  0  0  0  0  0  0  0
    1.6473    0.5352    0.0000 C   0  0  0  0  0  0  0  0  0  0  0  0
    1.4394    1.5134    0.0000 N   0  0  0  0  0  0  0  0  0  0  0  0
    0.5733    2.0134    0.0000 C   0  0  0  0  0  0  0  0  0  0  0  0
   -0.2927    1.5134    0.0000 O   0  0  0  0  0  0  0  0  0  0  0  0
   -0.2927    0.5134    0.0000 C   0  0  0  0  0  0  0  0  0  0  0  0
   -1.1587    0.0134    0.0000 C   0  0  0  0  0  0  0  0  0  0  0  0
   -1.1587   -0.9866    0.0000 C   0  0  0  0  0  0  0  0  0  0  0  0
   -2.0247   -1.4866    0.0000 C   0  0  0  0  0  0  0  0  0  0  0  0
   -2.8908   -0.9866    0.0000 C   0  0  0  0  0  0  0  0  0  0  0  0
   -2.8908    0.0134    0.0000 C   0  0  0  0  0  0  0  0  0  0  0  0
   -2.0247    0.5134    0.0000 C   0  0  0  0  0  0  0  0  0  0  0  0
   -2.0247    1.5134    0.0000 C   0  0  0  0  0  0  0  0  0  0  0  0
   -2.8908    2.0134    0.0000 C   0  0  0  0  0  0  0  0  0  0  0  0
   -3.7568    1.5134    0.0000 C   0  0  0  0  0  0  0  0  0  0  0  0
   -3.7568    0.5134    0.0000 C   0  0  0  0  0  0  0  0  0  0  0  0
    0.9781   -0.2079    0.0000 C   0  0  0  0  0  0  0  0  0  0  0  0
    1.2872   -1.1590    0.0000 C   0  0  0  0  0  0  0  0  0  0  0  0
    0.6180   -1.9021    0.0000 C   0  0  0  0  0  0  0  0  0  0  0  0
   -0.3601   -1.6942    0.0000 C   0  0  0  0  0  0  0  0  0  0  0  0
   -0.6691   -0.7431    0.0000 C   0  0  0  0  0  0  0  0  0  0  0  0
    0.0000    0.0000    0.0000 C   0  0  0  0  0  0  0  0  0  0  0  0
   -1.0292   -2.4373    0.0000 O   0  0  0  0  0  0  0  0  0  0  0  0
   -0.7202   -3.3884    0.0000 C   0  0  0  0  0  0  0  0  0  0  0  0
   -1.3894   -4.1315    0.0000 F   0  0  0  0  0  0  0  0  0  0  0  0
    0.2579   -3.5963    0.0000 F   0  0  0  0  0  0  0  0  0  0  0  0
  1  9  2  0  0  0  0
  1  2  1  0  0  0  0
  2  3  2  0  0  0  0
  3  4  1  0  0  0  0
  4  8  1  0  0  0  0
  4  5  2  0  0  0  0
  5  6  1  0  0  0  0
  6  7  2  0  0  0  0
  7  8  1  0  0  0  0
  7 22  1  0  0  0  0
  8  9  1  0  0  0  0
  9 10  1  0  0  0  0
 10 11  1  0  0  0  0
 11 12  1  0  0  0  0
 12 17  1  0  0  0  0
 12 13  2  0  0  0  0
 13 14  1  0  0  0  0
 14 15  2  0  0  0  0
 15 16  1  0  0  0  0
 16 21  1  0  0  0  0
 16 17  2  0  0  0  0
 17 18  1  0  0  0  0
 18 19  2  0  0  0  0
 19 20  1  0  0  0  0
 20 21  2  0  0  0  0
 22 27  1  0  0  0  0
 22 23  2  0  0  0  0
 23 24  1  0  0  0  0
 24 25  2  0  0  0  0
 25 26  1  0  0  0  0
 25 28  1  0  0  0  0
 26 27  2  0  0  0  0
 28 29  1  0  0  0  0
 29 30  1  0  0  0  0
 29 31  1  0  0  0  0
M  END
> <MW>
418.4

> <EC50>
1.668

$$$$
MMV672689
 OpenBabel06241423362D

 37 42  0  0  1  0  0  0  0  0999 V2000
    0.0000   -1.0000    0.0000 C   0  0  2  0  0  0  0  0  0  0  0  0
   -0.9659   -1.2588    0.0000 H   0  0  0  0  0  0  0  0  0  0  0  0
    0.0000    0.0000    0.0000 C   0  0  2  0  0  0  0  0  0  0  0  0
   -0.2588    0.9659    0.0000 H   0  0  0  0  0  0  0  0  0  0  0  0
    1.0000    0.0000    0.0000 N   0  0  3  0  0  0  0  0  0  0  0  0
    1.0000   -1.0000    0.0000 C   0  0  0  0  0  0  0  0  0  0  0  0
    1.7071    0.7071    0.0000 C   0  0  0  0  0  0  0  0  0  0  0  0
    1.9659    1.6730    0.0000 C   0  0  0  0  0  0  0  0  0  0  0  0
    2.6730    0.9659    0.0000 C   0  0  0  0  0  0  0  0  0  0  0  0
   -0.9659    0.2588    0.0000 C   0  0  0  0  0  0  0  0  0  0  0  0
   -1.6730   -0.4483    0.0000 C   0  0  0  0  0  0  0  0  0  0  0  0
   -2.6390   -0.1895    0.0000 C   0  0  0  0  0  0  0  0  0  0  0  0
   -2.8978    0.7765    0.0000 C   0  0  0  0  0  0  0  0  0  0  0  0
   -2.1907    1.4836    0.0000 C   0  0  0  0  0  0  0  0  0  0  0  0
   -1.2247    1.2247    0.0000 C   0  0  0  0  0  0  0  0  0  0  0  0
   -2.4495    2.4495    0.0000 F   0  0  0  0  0  0  0  0  0  0  0  0
   -3.8637    1.0353    0.0000 F   0  0  0  0  0  0  0  0  0  0  0  0
   -0.2588   -1.9659    0.0000 O   0  0  0  0  0  0  0  0  0  0  0  0
    0.4483   -2.6730    0.0000 C   0  0  0  0  0  0  0  0  0  0  0  0
    1.4142   -2.4142    0.0000 C   0  0  0  0  0  0  0  0  0  0  0  0
    2.1213   -3.1213    0.0000 N   0  0  0  0  0  0  0  0  0  0  0  0
    1.8625   -4.0872    0.0000 C   0  0  0  0  0  0  0  0  0  0  0  0
    0.8966   -4.3461    0.0000 C   0  0  0  0  0  0  0  0  0  0  0  0
    0.4426   -5.2371    0.0000 N   0  0  0  0  0  0  0  0  0  0  0  0
   -0.5451   -5.0806    0.0000 N   0  0  0  0  0  0  0  0  0  0  0  0
   -0.7015   -4.0929    0.0000 C   0  0  0  0  0  0  0  0  0  0  0  0
    0.1895   -3.6390    0.0000 N   0  0  0  0  0  0  0  0  0  0  0  0
   -1.5925   -3.6390    0.0000 C   0  0  0  0  0  0  0  0  0  0  0  0
   -2.4312   -4.1836    0.0000 C   0  0  0  0  0  0  0  0  0  0  0  0
   -3.3222   -3.7296    0.0000 C   0  0  0  0  0  0  0  0  0  0  0  0
   -3.3746   -2.7310    0.0000 C   0  0  0  0  0  0  0  0  0  0  0  0
   -2.5359   -2.1863    0.0000 C   0  0  0  0  0  0  0  0  0  0  0  0
   -1.6449   -2.6403    0.0000 C   0  0  0  0  0  0  0  0  0  0  0  0
   -4.2656   -2.2770    0.0000 O   0  0  0  0  0  0  0  0  0  0  0  0
   -4.3179   -1.2784    0.0000 C   0  0  0  0  0  0  0  0  0  0  0  0
   -3.4792   -0.7337    0.0000 F   0  0  0  0  0  0  0  0  0  0  0  0
   -5.2089   -0.8244    0.0000 F   0  0  0  0  0  0  0  0  0  0  0  0
  1  2  1  1  0  0  0
  1  6  1  0  0  0  0
  1  3  1  0  0  0  0
  1 18  1  0  0  0  0
  3  4  1  6  0  0  0
  3  5  1  0  0  0  0
  3 10  1  0  0  0  0
  5  6  1  0  0  0  0
  5  7  1  0  0  0  0
  7  9  1  0  0  0  0
  7  8  1  0  0  0  0
  8  9  1  0  0  0  0
 10 15  1  0  0  0  0
 10 11  2  0  0  0  0
 11 12  1  0  0  0  0
 12 13  2  0  0  0  0
 13 14  1  0  0  0  0
 13 17  1  0  0  0  0
 14 15  2  0  0  0  0
 14 16  1  0  0  0  0
 18 19  1  0  0  0  0
 19 27  1  0  0  0  0
 19 20  2  0  0  0  0
 20 21  1  0  0  0  0
 21 22  2  0  0  0  0
 22 23  1  0  0  0  0
 23 27  1  0  0  0  0
 23 24  2  0  0  0  0
 24 25  1  0  0  0  0
 25 26  2  0  0  0  0
 26 27  1  0  0  0  0
 26 28  1  0  0  0  0
 28 33  1  0  0  0  0
 28 29  2  0  0  0  0
 29 30  1  0  0  0  0
 30 31  2  0  0  0  0
 31 32  1  0  0  0  0
 31 34  1  0  0  0  0
 32 33  2  0  0  0  0
 34 35  1  0  0  0  0
 35 36  1  0  0  0  0
 35 37  1  0  0  0  0
M  END
> <MW>
485.44

> <EC50>
0.7308

$$$$
MMV672723
 OpenBabel06241423362D

 32 35  0  0  1  0  0  0  0  0999 V2000
   -0.8660    1.5000    0.0000 C   0  0  3  0  0  0  0  0  0  0  0  0
   -1.7321    1.0000    0.0000 C   0  0  0  0  0  0  0  0  0  0  0  0
   -2.5981    1.5000    0.0000 O   0  0  0  0  0  0  0  0  0  0  0  0
   -3.4641    1.0000    0.0000 C   0  0  0  0  0  0  0  0  0  0  0  0
   -3.4641    0.0000    0.0000 C   0  0  0  0  0  0  0  0  0  0  0  0
   -4.3301   -0.5000    0.0000 N   0  0  0  0  0  0  0  0  0  0  0  0
   -5.1962    0.0000    0.0000 C   0  0  0  0  0  0  0  0  0  0  0  0
   -5.1962    1.0000    0.0000 C   0  0  0  0  0  0  0  0  0  0  0  0
   -4.3301    1.5000    0.0000 N   0  0  0  0  0  0  0  0  0  0  0  0
   -4.5380    2.4781    0.0000 C   0  0  0  0  0  0  0  0  0  0  0  0
   -5.5326    2.5827    0.0000 N   0  0  0  0  0  0  0  0  0  0  0  0
   -5.9393    1.6691    0.0000 N   0  0  0  0  0  0  0  0  0  0  0  0
   -3.8689    3.2213    0.0000 C   0  0  0  0  0  0  0  0  0  0  0  0
   -2.8908    3.0134    0.0000 C   0  0  0  0  0  0  0  0  0  0  0  0
   -2.2216    3.7565    0.0000 C   0  0  0  0  0  0  0  0  0  0  0  0
   -2.5306    4.7076    0.0000 C   0  0  0  0  0  0  0  0  0  0  0  0
   -3.5088    4.9155    0.0000 C   0  0  0  0  0  0  0  0  0  0  0  0
   -4.1779    4.1723    0.0000 C   0  0  0  0  0  0  0  0  0  0  0  0
   -1.8615    5.4507    0.0000 O   0  0  0  0  0  0  0  0  0  0  0  0
   -2.1705    6.4018    0.0000 C   0  0  0  0  0  0  0  0  0  0  0  0
   -3.1487    6.6097    0.0000 F   0  0  0  0  0  0  0  0  0  0  0  0
   -1.5014    7.1449    0.0000 F   0  0  0  0  0  0  0  0  0  0  0  0
    0.0000    1.0000    0.0000 C   0  0  0  0  0  0  0  0  0  0  0  0
    0.8660    1.5000    0.0000 C   0  0  0  0  0  0  0  0  0  0  0  0
    1.7321    1.0000    0.0000 C   0  0  0  0  0  0  0  0  0  0  0  0
    1.7321    0.0000    0.0000 C   0  0  0  0  0  0  0  0  0  0  0  0
    0.8660   -0.5000    0.0000 C   0  0  0  0  0  0  0  0  0  0  0  0
    0.0000    0.0000    0.0000 C   0  0  0  0  0  0  0  0  0  0  0  0
    0.8660   -1.5000    0.0000 F   0  0  0  0  0  0  0  0  0  0  0  0
    2.5981   -0.5000    0.0000 F   0  0  0  0  0  0  0  0  0  0  0  0
   -0.3660    2.3660    0.0000 O   0  0  0  0  0  0  0  0  0  0  0  0
   -1.3660    2.3660    0.0000 C   0  0  0  0  0  0  0  0  0  0  0  0
  1  2  1  0  0  0  0
  1 23  1  0  0  0  0
  1 31  1  0  0  0  0
  1 32  1  0  0  0  0
  2  3  1  0  0  0  0
  3  4  1  0  0  0  0
  4  9  1  0  0  0  0
  4  5  2  0  0  0  0
  5  6  1  0  0  0  0
  6  7  2  0  0  0  0
  7  8  1  0  0  0  0
  8 12  2  0  0  0  0
  8  9  1  0  0  0  0
  9 10  1  0  0  0  0
 10 11  2  0  0  0  0
 10 13  1  0  0  0  0
 11 12  1  0  0  0  0
 13 18  1  0  0  0  0
 13 14  2  0  0  0  0
 14 15  1  0  0  0  0
 15 16  2  0  0  0  0
 16 17  1  0  0  0  0
 16 19  1  0  0  0  0
 17 18  2  0  0  0  0
 19 20  1  0  0  0  0
 20 21  1  0  0  0  0
 20 22  1  0  0  0  0
 23 28  1  0  0  0  0
 23 24  2  0  0  0  0
 24 25  1  0  0  0  0
 25 26  2  0  0  0  0
 26 27  1  0  0  0  0
 26 30  1  0  0  0  0
 27 28  2  0  0  0  0
 27 29  1  0  0  0  0
M  END
> <MW>
448.38

> <EC50>
0.1012

$$$$
MMV672725
 OpenBabel06241423362D

 33 37  0  0  0  0  0  0  0  0999 V2000
   -0.7138   -4.1723    0.0000 C   0  0  0  0  0  0  0  0  0  0  0  0
    0.1522   -4.6723    0.0000 N   0  0  0  0  0  0  0  0  0  0  0  0
    1.0182   -4.1723    0.0000 C   0  0  0  0  0  0  0  0  0  0  0  0
    1.0182   -3.1723    0.0000 C   0  0  0  0  0  0  0  0  0  0  0  0
    0.1522   -2.6723    0.0000 N   0  0  0  0  0  0  0  0  0  0  0  0
   -0.7138   -3.1723    0.0000 C   0  0  0  0  0  0  0  0  0  0  0  0
   -1.5798   -2.6723    0.0000 O   0  0  0  0  0  0  0  0  0  0  0  0
   -2.4459   -3.1723    0.0000 C   0  0  0  0  0  0  0  0  0  0  0  0
   -2.4459   -4.1723    0.0000 C   0  0  0  0  0  0  0  0  0  0  0  0
   -3.3119   -4.6723    0.0000 C   0  0  0  0  0  0  0  0  0  0  0  0
   -4.1779   -4.1723    0.0000 C   0  0  0  0  0  0  0  0  0  0  0  0
   -4.1779   -3.1723    0.0000 C   0  0  0  0  0  0  0  0  0  0  0  0
   -3.3119   -2.6723    0.0000 C   0  0  0  0  0  0  0  0  0  0  0  0
   -5.0440   -2.6723    0.0000 O   0  0  0  0  0  0  0  0  0  0  0  0
   -5.9100   -3.1723    0.0000 C   0  0  0  0  0  0  0  0  0  0  0  0
   -5.9100   -4.1723    0.0000 C   0  0  0  0  0  0  0  0  0  0  0  0
   -6.7760   -4.6723    0.0000 C   0  0  0  0  0  0  0  0  0  0  0  0
   -7.6420   -4.1723    0.0000 C   0  0  0  0  0  0  0  0  0  0  0  0
   -7.6420   -3.1723    0.0000 C   0  0  0  0  0  0  0  0  0  0  0  0
   -6.7760   -2.6723    0.0000 N   0  0  0  0  0  0  0  0  0  0  0  0
    0.3601   -1.6942    0.0000 C   0  0  0  0  0  0  0  0  0  0  0  0
    1.3546   -1.5897    0.0000 N   0  0  0  0  0  0  0  0  0  0  0  0
    1.7614   -2.5032    0.0000 N   0  0  0  0  0  0  0  0  0  0  0  0
   -0.3090   -0.9511    0.0000 C   0  0  0  0  0  0  0  0  0  0  0  0
   -1.2872   -1.1590    0.0000 C   0  0  0  0  0  0  0  0  0  0  0  0
   -1.9563   -0.4158    0.0000 C   0  0  0  0  0  0  0  0  0  0  0  0
   -1.6473    0.5352    0.0000 C   0  0  0  0  0  0  0  0  0  0  0  0
   -0.6691    0.7431    0.0000 C   0  0  0  0  0  0  0  0  0  0  0  0
    0.0000    0.0000    0.0000 C   0  0  0  0  0  0  0  0  0  0  0  0
   -2.3164    1.2784    0.0000 O   0  0  0  0  0  0  0  0  0  0  0  0
   -3.2946    1.0705    0.0000 C   0  0  0  0  0  0  0  0  0  0  0  0
   -3.9637    1.8136    0.0000 F   0  0  0  0  0  0  0  0  0  0  0  0
   -3.6036    0.1194    0.0000 F   0  0  0  0  0  0  0  0  0  0  0  0
  1  6  2  0  0  0  0
  1  2  1  0  0  0  0
  2  3  2  0  0  0  0
  3  4  1  0  0  0  0
  4 23  2  0  0  0  0
  4  5  1  0  0  0  0
  5  6  1  0  0  0  0
  5 21  1  0  0  0  0
  6  7  1  0  0  0  0
  7  8  1  0  0  0  0
  8 13  1  0  0  0  0
  8  9  2  0  0  0  0
  9 10  1  0  0  0  0
 10 11  2  0  0  0  0
 11 12  1  0  0  0  0
 12 13  2  0  0  0  0
 12 14  1  0  0  0  0
 14 15  1  0  0  0  0
 15 20  1  0  0  0  0
 15 16  2  0  0  0  0
 16 17  1  0  0  0  0
 17 18  2  0  0  0  0
 18 19  1  0  0  0  0
 19 20  2  0  0  0  0
 21 22  2  0  0  0  0
 21 24  1  0  0  0  0
 22 23  1  0  0  0  0
 24 29  1  0  0  0  0
 24 25  2  0  0  0  0
 25 26  1  0  0  0  0
 26 27  2  0  0  0  0
 27 28  1  0  0  0  0
 27 30  1  0  0  0  0
 28 29  2  0  0  0  0
 30 31  1  0  0  0  0
 31 32  1  0  0  0  0
 31 33  1  0  0  0  0
M  END
> <MW>
447.4

> <EC50>
6.038

$$$$
MMV672726
 OpenBabel06241423362D

 31 35  0  0  1  0  0  0  0  0999 V2000
    3.9703    1.4680    0.0000 C    0  0  0  0  0  0  0  0  0  0  0  0
    3.9703    2.4680    0.0000 N    0  0  0  0  0  0  0  0  0  0  0  0
    3.1042    2.9680    0.0000 C    0  0  0  0  0  0  0  0  0  0  0  0
    2.2382    2.4680    0.0000 C    0  0  0  0  0  0  0  0  0  0  0  0
    2.2382    1.4680    0.0000 N    0  0  0  0  0  0  0  0  0  0  0  0
    3.1042    0.9680    0.0000 C    0  0  0  0  0  0  0  0  0  0  0  0
    3.1042   -0.0320    0.0000 O    0  0  0  0  0  0  0  0  0  0  0  0
    3.9703   -0.5320    0.0000 C    0  0  0  0  0  0  0  0  0  0  0  0
    4.8363   -0.0320    0.0000 C    0  0  3  0  0  0  0  0  0  0  0  0
    4.9408    0.9625    0.0000 C    0  0  0  0  0  0  0  0  0  0  0  0
    5.9190    1.1704    0.0000 C    0  0  0  0  0  0  0  0  0  0  0  0
    6.4190    0.3044    0.0000 C    0  0  0  0  0  0  0  0  0  0  0  0
    5.7498   -0.4388    0.0000 C    0  0  0  0  0  0  0  0  0  0  0  0
    6.0589   -1.3898    0.0000 C    0  0  0  0  0  0  0  0  0  0  0  0
    7.0370   -1.5977    0.0000 C    0  0  0  0  0  0  0  0  0  0  0  0
    7.7061   -0.8546    0.0000 C    0  0  0  0  0  0  0  0  0  0  0  0
    7.3971    0.0965    0.0000 C    0  0  0  0  0  0  0  0  0  0  0  0
    8.6843   -1.0625    0.0000 Cl   0  0  0  0  0  0  0  0  0  0  0  0
    1.2872    1.1590    0.0000 C    0  0  0  0  0  0  0  0  0  0  0  0
    0.6994    1.9680    0.0000 N    0  0  0  0  0  0  0  0  0  0  0  0
    1.2872    2.7770    0.0000 N    0  0  0  0  0  0  0  0  0  0  0  0
    0.9781    0.2079    0.0000 C    0  0  0  0  0  0  0  0  0  0  0  0
    1.6473   -0.5352    0.0000 C    0  0  0  0  0  0  0  0  0  0  0  0
    1.3383   -1.4863    0.0000 C    0  0  0  0  0  0  0  0  0  0  0  0
    0.3601   -1.6942    0.0000 C    0  0  0  0  0  0  0  0  0  0  0  0
   -0.3090   -0.9511    0.0000 C    0  0  0  0  0  0  0  0  0  0  0  0
    0.0000    0.0000    0.0000 C    0  0  0  0  0  0  0  0  0  0  0  0
    0.0511   -2.6453    0.0000 O    0  0  0  0  0  0  0  0  0  0  0  0
    0.7202   -3.3884    0.0000 C    0  0  0  0  0  0  0  0  0  0  0  0
    0.4112   -4.3395    0.0000 F    0  0  0  0  0  0  0  0  0  0  0  0
    1.6984   -3.1805    0.0000 F    0  0  0  0  0  0  0  0  0  0  0  0
  1  6  2  0  0  0  0
  1  2  1  0  0  0  0
  2  3  2  0  0  0  0
  3  4  1  0  0  0  0
  4 21  2  0  0  0  0
  4  5  1  0  0  0  0
  5  6  1  0  0  0  0
  5 19  1  0  0  0  0
  6  7  1  0  0  0  0
  7  8  1  0  0  0  0
  8  9  1  0  0  0  0
  9 13  1  0  0  0  0
  9 10  1  0  0  0  0
 10 11  1  0  0  0  0
 11 12  1  0  0  0  0
 12 17  1  0  0  0  0
 12 13  2  0  0  0  0
 13 14  1  0  0  0  0
 14 15  2  0  0  0  0
 15 16  1  0  0  0  0
 16 17  2  0  0  0  0
 16 18  1  0  0  0  0
 19 20  2  0  0  0  0
 19 22  1  0  0  0  0
 20 21  1  0  0  0  0
 22 27  1  0  0  0  0
 22 23  2  0  0  0  0
 23 24  1  0  0  0  0
 24 25  2  0  0  0  0
 25 26  1  0  0  0  0
 25 28  1  0  0  0  0
 26 27  2  0  0  0  0
 28 29  1  0  0  0  0
 29 30  1  0  0  0  0
 29 31  1  0  0  0  0
M  END
> <MW>
442.85

> <EC50>
1.459

$$$$
MMV672727
 OpenBabel06241423362D

 32 35  0  0  1  0  0  0  0  0999 V2000
   -0.8660    1.5000    0.0000 C   0  0  3  0  0  0  0  0  0  0  0  0
   -1.7321    1.0000    0.0000 C   0  0  0  0  0  0  0  0  0  0  0  0
   -2.5981    1.5000    0.0000 O   0  0  0  0  0  0  0  0  0  0  0  0
   -3.4641    1.0000    0.0000 C   0  0  0  0  0  0  0  0  0  0  0  0
   -3.4641    0.0000    0.0000 C   0  0  0  0  0  0  0  0  0  0  0  0
   -4.3301   -0.5000    0.0000 N   0  0  0  0  0  0  0  0  0  0  0  0
   -5.1962    0.0000    0.0000 C   0  0  0  0  0  0  0  0  0  0  0  0
   -5.1962    1.0000    0.0000 C   0  0  0  0  0  0  0  0  0  0  0  0
   -4.3301    1.5000    0.0000 N   0  0  0  0  0  0  0  0  0  0  0  0
   -4.5380    2.4781    0.0000 C   0  0  0  0  0  0  0  0  0  0  0  0
   -5.5326    2.5827    0.0000 N   0  0  0  0  0  0  0  0  0  0  0  0
   -5.9393    1.6691    0.0000 N   0  0  0  0  0  0  0  0  0  0  0  0
   -3.8689    3.2213    0.0000 C   0  0  0  0  0  0  0  0  0  0  0  0
   -2.8908    3.0134    0.0000 C   0  0  0  0  0  0  0  0  0  0  0  0
   -2.2216    3.7565    0.0000 C   0  0  0  0  0  0  0  0  0  0  0  0
   -2.5306    4.7076    0.0000 C   0  0  0  0  0  0  0  0  0  0  0  0
   -3.5088    4.9155    0.0000 C   0  0  0  0  0  0  0  0  0  0  0  0
   -4.1779    4.1723    0.0000 C   0  0  0  0  0  0  0  0  0  0  0  0
   -1.8615    5.4507    0.0000 O   0  0  0  0  0  0  0  0  0  0  0  0
   -2.1705    6.4018    0.0000 C   0  0  0  0  0  0  0  0  0  0  0  0
   -3.1487    6.6097    0.0000 F   0  0  0  0  0  0  0  0  0  0  0  0
   -1.5014    7.1449    0.0000 F   0  0  0  0  0  0  0  0  0  0  0  0
    0.0000    1.0000    0.0000 C   0  0  0  0  0  0  0  0  0  0  0  0
    0.8660    1.5000    0.0000 C   0  0  0  0  0  0  0  0  0  0  0  0
    1.7321    1.0000    0.0000 C   0  0  0  0  0  0  0  0  0  0  0  0
    1.7321    0.0000    0.0000 C   0  0  0  0  0  0  0  0  0  0  0  0
    0.8660   -0.5000    0.0000 C   0  0  0  0  0  0  0  0  0  0  0  0
    0.0000    0.0000    0.0000 C   0  0  0  0  0  0  0  0  0  0  0  0
    0.8660   -1.5000    0.0000 F   0  0  0  0  0  0  0  0  0  0  0  0
    2.5981   -0.5000    0.0000 F   0  0  0  0  0  0  0  0  0  0  0  0
   -0.3660    2.3660    0.0000 F   0  0  0  0  0  0  0  0  0  0  0  0
   -1.3660    2.3660    0.0000 C   0  0  0  0  0  0  0  0  0  0  0  0
  1  2  1  0  0  0  0
  1 23  1  0  0  0  0
  1 31  1  0  0  0  0
  1 32  1  0  0  0  0
  2  3  1  0  0  0  0
  3  4  1  0  0  0  0
  4  9  1  0  0  0  0
  4  5  2  0  0  0  0
  5  6  1  0  0  0  0
  6  7  2  0  0  0  0
  7  8  1  0  0  0  0
  8 12  2  0  0  0  0
  8  9  1  0  0  0  0
  9 10  1  0  0  0  0
 10 11  2  0  0  0  0
 10 13  1  0  0  0  0
 11 12  1  0  0  0  0
 13 18  1  0  0  0  0
 13 14  2  0  0  0  0
 14 15  1  0  0  0  0
 15 16  2  0  0  0  0
 16 17  1  0  0  0  0
 16 19  1  0  0  0  0
 17 18  2  0  0  0  0
 19 20  1  0  0  0  0
 20 21  1  0  0  0  0
 20 22  1  0  0  0  0
 23 28  1  0  0  0  0
 23 24  2  0  0  0  0
 24 25  1  0  0  0  0
 25 26  2  0  0  0  0
 26 27  1  0  0  0  0
 26 30  1  0  0  0  0
 27 28  2  0  0  0  0
 27 29  1  0  0  0  0
M  END
> <MW>
450.37

> <EC50>
0.1228

$$$$
MMV672730
 OpenBabel06241423362D

 34 38  0  0  0  0  0  0  0  0999 V2000
   -0.7138   -4.1723    0.0000 C   0  0  0  0  0  0  0  0  0  0  0  0
    0.1522   -4.6723    0.0000 N   0  0  0  0  0  0  0  0  0  0  0  0
    1.0182   -4.1723    0.0000 C   0  0  0  0  0  0  0  0  0  0  0  0
    1.0182   -3.1723    0.0000 C   0  0  0  0  0  0  0  0  0  0  0  0
    0.1522   -2.6723    0.0000 N   0  0  0  0  0  0  0  0  0  0  0  0
   -0.7138   -3.1723    0.0000 C   0  0  0  0  0  0  0  0  0  0  0  0
   -1.5798   -2.6723    0.0000 O   0  0  0  0  0  0  0  0  0  0  0  0
   -2.4459   -3.1723    0.0000 C   0  0  0  0  0  0  0  0  0  0  0  0
   -2.4459   -4.1723    0.0000 C   0  0  0  0  0  0  0  0  0  0  0  0
   -3.3119   -4.6723    0.0000 C   0  0  0  0  0  0  0  0  0  0  0  0
   -4.1779   -4.1723    0.0000 C   0  0  0  0  0  0  0  0  0  0  0  0
   -4.1779   -3.1723    0.0000 C   0  0  0  0  0  0  0  0  0  0  0  0
   -3.3119   -2.6723    0.0000 C   0  0  0  0  0  0  0  0  0  0  0  0
   -5.0440   -2.6723    0.0000 C   0  0  0  0  0  0  0  0  0  0  0  0
   -5.9100   -3.1723    0.0000 N   0  0  0  0  0  0  0  0  0  0  0  0
   -5.9100   -4.1723    0.0000 C   0  0  0  0  0  0  0  0  0  0  0  0
   -5.0440   -4.6723    0.0000 N   0  0  0  0  0  0  0  0  0  0  0  0
   -6.7760   -4.6723    0.0000 C   0  0  0  0  0  0  0  0  0  0  0  0
   -7.2760   -5.5384    0.0000 F   0  0  0  0  0  0  0  0  0  0  0  0
   -6.2760   -5.5384    0.0000 F   0  0  0  0  0  0  0  0  0  0  0  0
   -7.6420   -4.1723    0.0000 F   0  0  0  0  0  0  0  0  0  0  0  0
    0.3601   -1.6942    0.0000 C   0  0  0  0  0  0  0  0  0  0  0  0
    1.3546   -1.5897    0.0000 N   0  0  0  0  0  0  0  0  0  0  0  0
    1.7614   -2.5032    0.0000 N   0  0  0  0  0  0  0  0  0  0  0  0
   -0.3090   -0.9511    0.0000 C   0  0  0  0  0  0  0  0  0  0  0  0
   -1.2872   -1.1590    0.0000 C   0  0  0  0  0  0  0  0  0  0  0  0
   -1.9563   -0.4158    0.0000 C   0  0  0  0  0  0  0  0  0  0  0  0
   -1.6473    0.5352    0.0000 C   0  0  0  0  0  0  0  0  0  0  0  0
   -0.6691    0.7431    0.0000 C   0  0  0  0  0  0  0  0  0  0  0  0
    0.0000    0.0000    0.0000 C   0  0  0  0  0  0  0  0  0  0  0  0
   -2.3164    1.2784    0.0000 O   0  0  0  0  0  0  0  0  0  0  0  0
   -3.2946    1.0705    0.0000 C   0  0  0  0  0  0  0  0  0  0  0  0
   -3.9637    1.8136    0.0000 F   0  0  0  0  0  0  0  0  0  0  0  0
   -3.6036    0.1194    0.0000 F   0  0  0  0  0  0  0  0  0  0  0  0
  1  6  2  0  0  0  0
  1  2  1  0  0  0  0
  2  3  2  0  0  0  0
  3  4  1  0  0  0  0
  4 24  2  0  0  0  0
  4  5  1  0  0  0  0
  5  6  1  0  0  0  0
  5 22  1  0  0  0  0
  6  7  1  0  0  0  0
  7  8  1  0  0  0  0
  8 13  1  0  0  0  0
  8  9  2  0  0  0  0
  9 10  1  0  0  0  0
 10 11  2  0  0  0  0
 11 17  1  0  0  0  0
 11 12  1  0  0  0  0
 12 13  2  0  0  0  0
 12 14  1  0  0  0  0
 14 15  2  0  0  0  0
 15 16  1  0  0  0  0
 16 17  2  0  0  0  0
 16 18  1  0  0  0  0
 18 19  1  0  0  0  0
 18 20  1  0  0  0  0
 18 21  1  0  0  0  0
 22 23  2  0  0  0  0
 22 25  1  0  0  0  0
 23 24  1  0  0  0  0
 25 30  1  0  0  0  0
 25 26  2  0  0  0  0
 26 27  1  0  0  0  0
 27 28  2  0  0  0  0
 28 29  1  0  0  0  0
 28 31  1  0  0  0  0
 29 30  2  0  0  0  0
 31 32  1  0  0  0  0
 32 33  1  0  0  0  0
 32 34  1  0  0  0  0
M  END
> <MW>
474.35

> <EC50>
2.025

$$$$
MMV672936
 OpenBabel06241423362D

 31 34  0  0  1  0  0  0  0  0999 V2000
   -0.8660    1.5000    0.0000 C   0  0  3  0  0  0  0  0  0  0  0  0
   -1.7321    1.0000    0.0000 C   0  0  0  0  0  0  0  0  0  0  0  0
   -2.5981    1.5000    0.0000 O   0  0  0  0  0  0  0  0  0  0  0  0
   -3.4641    1.0000    0.0000 C   0  0  0  0  0  0  0  0  0  0  0  0
   -3.4641    0.0000    0.0000 C   0  0  0  0  0  0  0  0  0  0  0  0
   -4.3301   -0.5000    0.0000 N   0  0  0  0  0  0  0  0  0  0  0  0
   -5.1962    0.0000    0.0000 C   0  0  0  0  0  0  0  0  0  0  0  0
   -5.1962    1.0000    0.0000 C   0  0  0  0  0  0  0  0  0  0  0  0
   -4.3301    1.5000    0.0000 N   0  0  0  0  0  0  0  0  0  0  0  0
   -4.5380    2.4781    0.0000 C   0  0  0  0  0  0  0  0  0  0  0  0
   -5.5326    2.5827    0.0000 N   0  0  0  0  0  0  0  0  0  0  0  0
   -5.9393    1.6691    0.0000 N   0  0  0  0  0  0  0  0  0  0  0  0
   -3.8689    3.2213    0.0000 C   0  0  0  0  0  0  0  0  0  0  0  0
   -2.8908    3.0134    0.0000 C   0  0  0  0  0  0  0  0  0  0  0  0
   -2.2216    3.7565    0.0000 C   0  0  0  0  0  0  0  0  0  0  0  0
   -2.5306    4.7076    0.0000 C   0  0  0  0  0  0  0  0  0  0  0  0
   -3.5088    4.9155    0.0000 C   0  0  0  0  0  0  0  0  0  0  0  0
   -4.1779    4.1723    0.0000 C   0  0  0  0  0  0  0  0  0  0  0  0
   -1.8615    5.4507    0.0000 O   0  0  0  0  0  0  0  0  0  0  0  0
   -2.1705    6.4018    0.0000 C   0  0  0  0  0  0  0  0  0  0  0  0
   -3.1487    6.6097    0.0000 F   0  0  0  0  0  0  0  0  0  0  0  0
   -1.5014    7.1449    0.0000 F   0  0  0  0  0  0  0  0  0  0  0  0
    0.0000    1.0000    0.0000 C   0  0  0  0  0  0  0  0  0  0  0  0
    0.8660    1.5000    0.0000 C   0  0  0  0  0  0  0  0  0  0  0  0
    1.7321    1.0000    0.0000 C   0  0  0  0  0  0  0  0  0  0  0  0
    1.7321    0.0000    0.0000 C   0  0  0  0  0  0  0  0  0  0  0  0
    0.8660   -0.5000    0.0000 C   0  0  0  0  0  0  0  0  0  0  0  0
    0.0000    0.0000    0.0000 C   0  0  0  0  0  0  0  0  0  0  0  0
    0.8660   -1.5000    0.0000 F   0  0  0  0  0  0  0  0  0  0  0  0
    2.5981   -0.5000    0.0000 F   0  0  0  0  0  0  0  0  0  0  0  0
   -0.8660    2.5000    0.0000 F   0  0  0  0  0  0  0  0  0  0  0  0
  1  2  1  0  0  0  0
  1 23  1  0  0  0  0
  1 31  1  0  0  0  0
  2  3  1  0  0  0  0
  3  4  1  0  0  0  0
  4  9  1  0  0  0  0
  4  5  2  0  0  0  0
  5  6  1  0  0  0  0
  6  7  2  0  0  0  0
  7  8  1  0  0  0  0
  8 12  2  0  0  0  0
  8  9  1  0  0  0  0
  9 10  1  0  0  0  0
 10 11  2  0  0  0  0
 10 13  1  0  0  0  0
 11 12  1  0  0  0  0
 13 18  1  0  0  0  0
 13 14  2  0  0  0  0
 14 15  1  0  0  0  0
 15 16  2  0  0  0  0
 16 17  1  0  0  0  0
 16 19  1  0  0  0  0
 17 18  2  0  0  0  0
 19 20  1  0  0  0  0
 20 21  1  0  0  0  0
 20 22  1  0  0  0  0
 23 28  1  0  0  0  0
 23 24  2  0  0  0  0
 24 25  1  0  0  0  0
 25 26  2  0  0  0  0
 26 27  1  0  0  0  0
 26 30  1  0  0  0  0
 27 28  2  0  0  0  0
 27 29  1  0  0  0  0
M  END
> <MW>
436.34

> <EC50>
0.06536

$$$$
MMV672937
 OpenBabel06241423362D

 29 33  0  0  0  0  0  0  0  0999 V2000
   -0.7138   -4.1723    0.0000 C   0  0  0  0  0  0  0  0  0  0  0  0
    0.1522   -4.6723    0.0000 N   0  0  0  0  0  0  0  0  0  0  0  0
    1.0182   -4.1723    0.0000 C   0  0  0  0  0  0  0  0  0  0  0  0
    1.0182   -3.1723    0.0000 C   0  0  0  0  0  0  0  0  0  0  0  0
    0.1522   -2.6723    0.0000 N   0  0  0  0  0  0  0  0  0  0  0  0
   -0.7138   -3.1723    0.0000 C   0  0  0  0  0  0  0  0  0  0  0  0
   -1.5798   -2.6723    0.0000 O   0  0  0  0  0  0  0  0  0  0  0  0
   -2.4459   -3.1723    0.0000 C   0  0  0  0  0  0  0  0  0  0  0  0
   -2.4459   -4.1723    0.0000 C   0  0  0  0  0  0  0  0  0  0  0  0
   -3.3119   -4.6723    0.0000 C   0  0  0  0  0  0  0  0  0  0  0  0
   -4.1779   -4.1723    0.0000 C   0  0  0  0  0  0  0  0  0  0  0  0
   -4.1779   -3.1723    0.0000 C   0  0  0  0  0  0  0  0  0  0  0  0
   -3.3119   -2.6723    0.0000 C   0  0  0  0  0  0  0  0  0  0  0  0
   -5.1290   -2.8633    0.0000 S   0  0  0  0  0  0  0  0  0  0  0  0
   -5.7168   -3.6723    0.0000 C   0  0  0  0  0  0  0  0  0  0  0  0
   -5.1290   -4.4814    0.0000 C   0  0  0  0  0  0  0  0  0  0  0  0
    0.3601   -1.6942    0.0000 C   0  0  0  0  0  0  0  0  0  0  0  0
    1.3546   -1.5897    0.0000 N   0  0  0  0  0  0  0  0  0  0  0  0
    1.7614   -2.5032    0.0000 N   0  0  0  0  0  0  0  0  0  0  0  0
   -0.3090   -0.9511    0.0000 C   0  0  0  0  0  0  0  0  0  0  0  0
   -1.2872   -1.1590    0.0000 C   0  0  0  0  0  0  0  0  0  0  0  0
   -1.9563   -0.4158    0.0000 C   0  0  0  0  0  0  0  0  0  0  0  0
   -1.6473    0.5352    0.0000 C   0  0  0  0  0  0  0  0  0  0  0  0
   -0.6691    0.7431    0.0000 C   0  0  0  0  0  0  0  0  0  0  0  0
    0.0000    0.0000    0.0000 C   0  0  0  0  0  0  0  0  0  0  0  0
   -2.3164    1.2784    0.0000 O   0  0  0  0  0  0  0  0  0  0  0  0
   -2.0074    2.2294    0.0000 C   0  0  0  0  0  0  0  0  0  0  0  0
   -1.0292    2.4373    0.0000 F   0  0  0  0  0  0  0  0  0  0  0  0
   -2.6765    2.9726    0.0000 F   0  0  0  0  0  0  0  0  0  0  0  0
  1  6  2  0  0  0  0
  1  2  1  0  0  0  0
  2  3  2  0  0  0  0
  3  4  1  0  0  0  0
  4 19  2  0  0  0  0
  4  5  1  0  0  0  0
  5  6  1  0  0  0  0
  5 17  1  0  0  0  0
  6  7  1  0  0  0  0
  7  8  1  0  0  0  0
  8 13  1  0  0  0  0
  8  9  2  0  0  0  0
  9 10  1  0  0  0  0
 10 11  2  0  0  0  0
 11 16  1  0  0  0  0
 11 12  1  0  0  0  0
 12 13  2  0  0  0  0
 12 14  1  0  0  0  0
 14 15  1  0  0  0  0
 15 16  2  0  0  0  0
 17 18  2  0  0  0  0
 17 20  1  0  0  0  0
 18 19  1  0  0  0  0
 20 25  1  0  0  0  0
 20 21  2  0  0  0  0
 21 22  1  0  0  0  0
 22 23  2  0  0  0  0
 23 24  1  0  0  0  0
 23 26  1  0  0  0  0
 24 25  2  0  0  0  0
 26 27  1  0  0  0  0
 27 28  1  0  0  0  0
 27 29  1  0  0  0  0
M  END
> <MW>
410.4

> <EC50>
0.5764

$$$$
MMV672939
 OpenBabel06241423362D

 30 33  0  0  0  0  0  0  0  0999 V2000
   -3.4641    1.0000    0.0000 C   0  0  0  0  0  0  0  0  0  0  0  0
   -4.3301    1.5000    0.0000 C   0  0  0  0  0  0  0  0  0  0  0  0
   -5.1962    1.0000    0.0000 C   0  0  0  0  0  0  0  0  0  0  0  0
   -5.1962    0.0000    0.0000 C   0  0  0  0  0  0  0  0  0  0  0  0
   -4.3301   -0.5000    0.0000 N   0  0  0  0  0  0  0  0  0  0  0  0
   -3.4641    0.0000    0.0000 N   0  0  0  0  0  0  0  0  0  0  0  0
   -4.5380   -1.4781    0.0000 C   0  0  0  0  0  0  0  0  0  0  0  0
   -5.5326   -1.5827    0.0000 N   0  0  0  0  0  0  0  0  0  0  0  0
   -5.9393   -0.6691    0.0000 N   0  0  0  0  0  0  0  0  0  0  0  0
   -3.8689   -2.2213    0.0000 C   0  0  0  0  0  0  0  0  0  0  0  0
   -2.8908   -2.0134    0.0000 C   0  0  0  0  0  0  0  0  0  0  0  0
   -2.2216   -2.7565    0.0000 C   0  0  0  0  0  0  0  0  0  0  0  0
   -2.5306   -3.7076    0.0000 C   0  0  0  0  0  0  0  0  0  0  0  0
   -3.5088   -3.9155    0.0000 C   0  0  0  0  0  0  0  0  0  0  0  0
   -4.1779   -3.1723    0.0000 C   0  0  0  0  0  0  0  0  0  0  0  0
   -1.8615   -4.4507    0.0000 O   0  0  0  0  0  0  0  0  0  0  0  0
   -2.1705   -5.4018    0.0000 C   0  0  0  0  0  0  0  0  0  0  0  0
   -3.1487   -5.6097    0.0000 F   0  0  0  0  0  0  0  0  0  0  0  0
   -1.5014   -6.1449    0.0000 F   0  0  0  0  0  0  0  0  0  0  0  0
   -2.5981    1.5000    0.0000 O   0  0  0  0  0  0  0  0  0  0  0  0
   -1.7321    1.0000    0.0000 C   0  0  0  0  0  0  0  0  0  0  0  0
   -0.8660    1.5000    0.0000 C   0  0  0  0  0  0  0  0  0  0  0  0
    0.0000    1.0000    0.0000 C   0  0  0  0  0  0  0  0  0  0  0  0
    0.8660    1.5000    0.0000 C   0  0  0  0  0  0  0  0  0  0  0  0
    1.7321    1.0000    0.0000 C   0  0  0  0  0  0  0  0  0  0  0  0
    1.7321    0.0000    0.0000 C   0  0  0  0  0  0  0  0  0  0  0  0
    0.8660   -0.5000    0.0000 C   0  0  0  0  0  0  0  0  0  0  0  0
    0.0000    0.0000    0.0000 C   0  0  0  0  0  0  0  0  0  0  0  0
    2.5981   -0.5000    0.0000 F   0  0  0  0  0  0  0  0  0  0  0  0
    2.5981    1.5000    0.0000 F   0  0  0  0  0  0  0  0  0  0  0  0
  1  6  2  0  0  0  0
  1  2  1  0  0  0  0
  1 20  1  0  0  0  0
  2  3  2  0  0  0  0
  3  4  1  0  0  0  0
  4  9  2  0  0  0  0
  4  5  1  0  0  0  0
  5  6  1  0  0  0  0
  5  7  1  0  0  0  0
  7  8  2  0  0  0  0
  7 10  1  0  0  0  0
  8  9  1  0  0  0  0
 10 15  1  0  0  0  0
 10 11  2  0  0  0  0
 11 12  1  0  0  0  0
 12 13  2  0  0  0  0
 13 14  1  0  0  0  0
 13 16  1  0  0  0  0
 14 15  2  0  0  0  0
 16 17  1  0  0  0  0
 17 18  1  0  0  0  0
 17 19  1  0  0  0  0
 20 21  1  0  0  0  0
 21 22  1  0  0  0  0
 22 23  1  0  0  0  0
 23 28  1  0  0  0  0
 23 24  2  0  0  0  0
 24 25  1  0  0  0  0
 25 26  2  0  0  0  0
 25 30  1  0  0  0  0
 26 27  1  0  0  0  0
 26 29  1  0  0  0  0
 27 28  2  0  0  0  0
M  END
> <MW>
418.35

> <EC50>
6.779

$$$$
MMV672940
 OpenBabel06241423362D

 32 36  0  0  0  0  0  0  0  0999 V2000
   -0.7138   -4.1723    0.0000 C   0  0  0  0  0  0  0  0  0  0  0  0
    0.1522   -4.6723    0.0000 N   0  0  0  0  0  0  0  0  0  0  0  0
    1.0182   -4.1723    0.0000 C   0  0  0  0  0  0  0  0  0  0  0  0
    1.0182   -3.1723    0.0000 C   0  0  0  0  0  0  0  0  0  0  0  0
    0.1522   -2.6723    0.0000 N   0  0  0  0  0  0  0  0  0  0  0  0
   -0.7138   -3.1723    0.0000 C   0  0  0  0  0  0  0  0  0  0  0  0
   -1.5798   -2.6723    0.0000 O   0  0  0  0  0  0  0  0  0  0  0  0
   -2.4459   -3.1723    0.0000 C   0  0  0  0  0  0  0  0  0  0  0  0
   -2.4459   -4.1723    0.0000 C   0  0  0  0  0  0  0  0  0  0  0  0
   -3.3119   -4.6723    0.0000 C   0  0  0  0  0  0  0  0  0  0  0  0
   -4.1779   -4.1723    0.0000 C   0  0  0  0  0  0  0  0  0  0  0  0
   -4.1779   -3.1723    0.0000 C   0  0  0  0  0  0  0  0  0  0  0  0
   -3.3119   -2.6723    0.0000 C   0  0  0  0  0  0  0  0  0  0  0  0
   -5.0440   -2.6723    0.0000 C   0  0  0  0  0  0  0  0  0  0  0  0
   -5.9100   -3.1723    0.0000 C   0  0  0  0  0  0  0  0  0  0  0  0
   -5.9100   -4.1723    0.0000 C   0  0  0  0  0  0  0  0  0  0  0  0
   -5.0440   -4.6723    0.0000 C   0  0  0  0  0  0  0  0  0  0  0  0
   -6.7760   -4.6723    0.0000 F   0  0  0  0  0  0  0  0  0  0  0  0
   -6.7760   -2.6723    0.0000 F   0  0  0  0  0  0  0  0  0  0  0  0
    0.3601   -1.6942    0.0000 C   0  0  0  0  0  0  0  0  0  0  0  0
    1.3546   -1.5897    0.0000 N   0  0  0  0  0  0  0  0  0  0  0  0
    1.7614   -2.5032    0.0000 N   0  0  0  0  0  0  0  0  0  0  0  0
   -0.3090   -0.9511    0.0000 C   0  0  0  0  0  0  0  0  0  0  0  0
   -1.2872   -1.1590    0.0000 C   0  0  0  0  0  0  0  0  0  0  0  0
   -1.9563   -0.4158    0.0000 C   0  0  0  0  0  0  0  0  0  0  0  0
   -1.6473    0.5352    0.0000 C   0  0  0  0  0  0  0  0  0  0  0  0
   -0.6691    0.7431    0.0000 C   0  0  0  0  0  0  0  0  0  0  0  0
    0.0000    0.0000    0.0000 C   0  0  0  0  0  0  0  0  0  0  0  0
   -2.3164    1.2784    0.0000 O   0  0  0  0  0  0  0  0  0  0  0  0
   -3.2946    1.0705    0.0000 C   0  0  0  0  0  0  0  0  0  0  0  0
   -3.9637    1.8136    0.0000 F   0  0  0  0  0  0  0  0  0  0  0  0
   -3.6036    0.1194    0.0000 F   0  0  0  0  0  0  0  0  0  0  0  0
  1  6  2  0  0  0  0
  1  2  1  0  0  0  0
  2  3  2  0  0  0  0
  3  4  1  0  0  0  0
  4 22  2  0  0  0  0
  4  5  1  0  0  0  0
  5  6  1  0  0  0  0
  5 20  1  0  0  0  0
  6  7  1  0  0  0  0
  7  8  1  0  0  0  0
  8 13  1  0  0  0  0
  8  9  2  0  0  0  0
  9 10  1  0  0  0  0
 10 11  2  0  0  0  0
 11 17  1  0  0  0  0
 11 12  1  0  0  0  0
 12 13  2  0  0  0  0
 12 14  1  0  0  0  0
 14 15  2  0  0  0  0
 15 16  1  0  0  0  0
 15 19  1  0  0  0  0
 16 17  2  0  0  0  0
 16 18  1  0  0  0  0
 20 21  2  0  0  0  0
 20 23  1  0  0  0  0
 21 22  1  0  0  0  0
 23 28  1  0  0  0  0
 23 24  2  0  0  0  0
 24 25  1  0  0  0  0
 25 26  2  0  0  0  0
 26 27  1  0  0  0  0
 26 29  1  0  0  0  0
 27 28  2  0  0  0  0
 29 30  1  0  0  0  0
 30 31  1  0  0  0  0
 30 32  1  0  0  0  0
M  END
> <MW>
440.36

> <EC50>
0.8392

$$$$
MMV672941
 OpenBabel06241423362D

 32 36  0  0  0  0  0  0  0  0999 V2000
    0.7138    4.1723    0.0000 C   0  0  0  0  0  0  0  0  0  0  0  0
   -0.1522    4.6723    0.0000 N   0  0  0  0  0  0  0  0  0  0  0  0
   -1.0182    4.1723    0.0000 C   0  0  0  0  0  0  0  0  0  0  0  0
   -1.0182    3.1723    0.0000 C   0  0  0  0  0  0  0  0  0  0  0  0
   -0.1522    2.6723    0.0000 N   0  0  0  0  0  0  0  0  0  0  0  0
    0.7138    3.1723    0.0000 C   0  0  0  0  0  0  0  0  0  0  0  0
    1.5798    2.6723    0.0000 O   0  0  0  0  0  0  0  0  0  0  0  0
    2.4459    3.1723    0.0000 C   0  0  0  0  0  0  0  0  0  0  0  0
    2.4459    4.1723    0.0000 C   0  0  0  0  0  0  0  0  0  0  0  0
    3.3119    4.6723    0.0000 C   0  0  0  0  0  0  0  0  0  0  0  0
    4.1779    4.1723    0.0000 C   0  0  0  0  0  0  0  0  0  0  0  0
    4.1779    3.1723    0.0000 C   0  0  0  0  0  0  0  0  0  0  0  0
    3.3119    2.6723    0.0000 C   0  0  0  0  0  0  0  0  0  0  0  0
    5.0440    2.6723    0.0000 C   0  0  0  0  0  0  0  0  0  0  0  0
    5.9100    3.1723    0.0000 C   0  0  0  0  0  0  0  0  0  0  0  0
    5.9100    4.1723    0.0000 C   0  0  0  0  0  0  0  0  0  0  0  0
    5.0440    4.6723    0.0000 C   0  0  0  0  0  0  0  0  0  0  0  0
    5.0440    5.6723    0.0000 F   0  0  0  0  0  0  0  0  0  0  0  0
    6.7760    2.6723    0.0000 F   0  0  0  0  0  0  0  0  0  0  0  0
   -0.3601    1.6942    0.0000 C   0  0  0  0  0  0  0  0  0  0  0  0
   -1.3546    1.5897    0.0000 N   0  0  0  0  0  0  0  0  0  0  0  0
   -1.7614    2.5032    0.0000 N   0  0  0  0  0  0  0  0  0  0  0  0
    0.3090    0.9511    0.0000 C   0  0  0  0  0  0  0  0  0  0  0  0
    1.2872    1.1590    0.0000 C   0  0  0  0  0  0  0  0  0  0  0  0
    1.9563    0.4158    0.0000 C   0  0  0  0  0  0  0  0  0  0  0  0
    1.6473   -0.5352    0.0000 C   0  0  0  0  0  0  0  0  0  0  0  0
    0.6691   -0.7431    0.0000 C   0  0  0  0  0  0  0  0  0  0  0  0
    0.0000    0.0000    0.0000 C   0  0  0  0  0  0  0  0  0  0  0  0
    2.3164   -1.2784    0.0000 O   0  0  0  0  0  0  0  0  0  0  0  0
    2.0074   -2.2294    0.0000 C   0  0  0  0  0  0  0  0  0  0  0  0
    1.0292   -2.4373    0.0000 F   0  0  0  0  0  0  0  0  0  0  0  0
    2.6765   -2.9726    0.0000 F   0  0  0  0  0  0  0  0  0  0  0  0
  1  6  2  0  0  0  0
  1  2  1  0  0  0  0
  2  3  2  0  0  0  0
  3  4  1  0  0  0  0
  4 22  2  0  0  0  0
  4  5  1  0  0  0  0
  5  6  1  0  0  0  0
  5 20  1  0  0  0  0
  6  7  1  0  0  0  0
  7  8  1  0  0  0  0
  8 13  1  0  0  0  0
  8  9  2  0  0  0  0
  9 10  1  0  0  0  0
 10 11  2  0  0  0  0
 11 17  1  0  0  0  0
 11 12  1  0  0  0  0
 12 13  2  0  0  0  0
 12 14  1  0  0  0  0
 14 15  2  0  0  0  0
 15 16  1  0  0  0  0
 15 19  1  0  0  0  0
 16 17  2  0  0  0  0
 17 18  1  0  0  0  0
 20 21  2  0  0  0  0
 20 23  1  0  0  0  0
 21 22  1  0  0  0  0
 23 28  1  0  0  0  0
 23 24  2  0  0  0  0
 24 25  1  0  0  0  0
 25 26  2  0  0  0  0
 26 27  1  0  0  0  0
 26 29  1  0  0  0  0
 27 28  2  0  0  0  0
 29 30  1  0  0  0  0
 30 31  1  0  0  0  0
 30 32  1  0  0  0  0
M  END
> <MW>
440.36

> <EC50>
0.1734

$$$$
MMV672942
 OpenBabel06241423362D

 29 32  0  0  0  0  0  0  0  0999 V2000
   -3.4641    1.0000    0.0000 C   0  0  0  0  0  0  0  0  0  0  0  0
   -4.3301    1.5000    0.0000 C   0  0  0  0  0  0  0  0  0  0  0  0
   -5.1962    1.0000    0.0000 C   0  0  0  0  0  0  0  0  0  0  0  0
   -5.1962    0.0000    0.0000 C   0  0  0  0  0  0  0  0  0  0  0  0
   -4.3301   -0.5000    0.0000 N   0  0  0  0  0  0  0  0  0  0  0  0
   -3.4641    0.0000    0.0000 N   0  0  0  0  0  0  0  0  0  0  0  0
   -4.5380   -1.4781    0.0000 C   0  0  0  0  0  0  0  0  0  0  0  0
   -5.5326   -1.5827    0.0000 N   0  0  0  0  0  0  0  0  0  0  0  0
   -5.9393   -0.6691    0.0000 N   0  0  0  0  0  0  0  0  0  0  0  0
   -3.8689   -2.2213    0.0000 C   0  0  0  0  0  0  0  0  0  0  0  0
   -2.8908   -2.0134    0.0000 C   0  0  0  0  0  0  0  0  0  0  0  0
   -2.2216   -2.7565    0.0000 C   0  0  0  0  0  0  0  0  0  0  0  0
   -2.5306   -3.7076    0.0000 C   0  0  0  0  0  0  0  0  0  0  0  0
   -3.5088   -3.9155    0.0000 C   0  0  0  0  0  0  0  0  0  0  0  0
   -4.1779   -3.1723    0.0000 C   0  0  0  0  0  0  0  0  0  0  0  0
   -1.8615   -4.4507    0.0000 O   0  0  0  0  0  0  0  0  0  0  0  0
   -2.1705   -5.4018    0.0000 C   0  0  0  0  0  0  0  0  0  0  0  0
   -3.1487   -5.6097    0.0000 F   0  0  0  0  0  0  0  0  0  0  0  0
   -1.5014   -6.1449    0.0000 F   0  0  0  0  0  0  0  0  0  0  0  0
   -2.5981    1.5000    0.0000 N   0  0  0  0  0  0  0  0  0  0  0  0
   -1.7321    1.0000    0.0000 C   0  0  0  0  0  0  0  0  0  0  0  0
   -0.8660    1.5000    0.0000 C   0  0  0  0  0  0  0  0  0  0  0  0
    0.0000    1.0000    0.0000 C   0  0  0  0  0  0  0  0  0  0  0  0
    0.8660    1.5000    0.0000 C   0  0  0  0  0  0  0  0  0  0  0  0
    1.7321    1.0000    0.0000 C   0  0  0  0  0  0  0  0  0  0  0  0
    1.7321    0.0000    0.0000 C   0  0  0  0  0  0  0  0  0  0  0  0
    0.8660   -0.5000    0.0000 C   0  0  0  0  0  0  0  0  0  0  0  0
    0.0000    0.0000    0.0000 C   0  0  0  0  0  0  0  0  0  0  0  0
    2.5981   -0.5000    0.0000 F   0  0  0  0  0  0  0  0  0  0  0  0
  1  6  2  0  0  0  0
  1  2  1  0  0  0  0
  1 20  1  0  0  0  0
  2  3  2  0  0  0  0
  3  4  1  0  0  0  0
  4  9  2  0  0  0  0
  4  5  1  0  0  0  0
  5  6  1  0  0  0  0
  5  7  1  0  0  0  0
  7  8  2  0  0  0  0
  7 10  1  0  0  0  0
  8  9  1  0  0  0  0
 10 15  1  0  0  0  0
 10 11  2  0  0  0  0
 11 12  1  0  0  0  0
 12 13  2  0  0  0  0
 13 14  1  0  0  0  0
 13 16  1  0  0  0  0
 14 15  2  0  0  0  0
 16 17  1  0  0  0  0
 17 18  1  0  0  0  0
 17 19  1  0  0  0  0
 20 21  1  0  0  0  0
 21 22  1  0  0  0  0
 22 23  1  0  0  0  0
 23 28  1  0  0  0  0
 23 24  2  0  0  0  0
 24 25  1  0  0  0  0
 25 26  2  0  0  0  0
 26 27  1  0  0  0  0
 26 29  1  0  0  0  0
 27 28  2  0  0  0  0
M  END
> <MW>
399.38

> <EC50>
0.5096

$$$$
MMV672989
 OpenBabel06241423362D

 32 36  0  0  0  0  0  0  0  0999 V2000
   -3.9703   -1.4680    0.0000 C   0  0  0  0  0  0  0  0  0  0  0  0
   -3.9703   -2.4680    0.0000 N   0  0  0  0  0  0  0  0  0  0  0  0
   -3.1042   -2.9680    0.0000 C   0  0  0  0  0  0  0  0  0  0  0  0
   -2.2382   -2.4680    0.0000 C   0  0  0  0  0  0  0  0  0  0  0  0
   -2.2382   -1.4680    0.0000 N   0  0  0  0  0  0  0  0  0  0  0  0
   -3.1042   -0.9680    0.0000 C   0  0  0  0  0  0  0  0  0  0  0  0
   -3.1042    0.0320    0.0000 O   0  0  0  0  0  0  0  0  0  0  0  0
   -3.9703    0.5320    0.0000 C   0  0  0  0  0  0  0  0  0  0  0  0
   -4.8363    0.0320    0.0000 C   0  0  0  0  0  0  0  0  0  0  0  0
   -5.7023    0.5320    0.0000 C   0  0  0  0  0  0  0  0  0  0  0  0
   -6.5683    0.0320    0.0000 N   0  0  0  0  0  0  0  0  0  0  0  0
   -7.4344    0.5320    0.0000 C   0  0  0  0  0  0  0  0  0  0  0  0
   -7.4344    1.5320    0.0000 C   0  0  0  0  0  0  0  0  0  0  0  0
   -6.5683    2.0320    0.0000 C   0  0  0  0  0  0  0  0  0  0  0  0
   -5.7023    1.5320    0.0000 C   0  0  0  0  0  0  0  0  0  0  0  0
   -4.8363    2.0320    0.0000 C   0  0  0  0  0  0  0  0  0  0  0  0
   -3.9703    1.5320    0.0000 C   0  0  0  0  0  0  0  0  0  0  0  0
   -8.3004    0.0320    0.0000 O   0  0  0  0  0  0  0  0  0  0  0  0
   -9.1664    0.5320    0.0000 C   0  0  0  0  0  0  0  0  0  0  0  0
   -1.2872   -1.1590    0.0000 C   0  0  0  0  0  0  0  0  0  0  0  0
   -0.6994   -1.9680    0.0000 N   0  0  0  0  0  0  0  0  0  0  0  0
   -1.2872   -2.7770    0.0000 N   0  0  0  0  0  0  0  0  0  0  0  0
   -0.9781   -0.2079    0.0000 C   0  0  0  0  0  0  0  0  0  0  0  0
   -1.6473    0.5352    0.0000 C   0  0  0  0  0  0  0  0  0  0  0  0
   -1.3383    1.4863    0.0000 C   0  0  0  0  0  0  0  0  0  0  0  0
   -0.3601    1.6942    0.0000 C   0  0  0  0  0  0  0  0  0  0  0  0
    0.3090    0.9511    0.0000 C   0  0  0  0  0  0  0  0  0  0  0  0
    0.0000    0.0000    0.0000 C   0  0  0  0  0  0  0  0  0  0  0  0
   -0.0511    2.6453    0.0000 O   0  0  0  0  0  0  0  0  0  0  0  0
    0.9271    2.8532    0.0000 C   0  0  0  0  0  0  0  0  0  0  0  0
    1.5962    2.1100    0.0000 F   0  0  0  0  0  0  0  0  0  0  0  0
    1.2361    3.8042    0.0000 F   0  0  0  0  0  0  0  0  0  0  0  0
  1  6  2  0  0  0  0
  1  2  1  0  0  0  0
  2  3  2  0  0  0  0
  3  4  1  0  0  0  0
  4 22  2  0  0  0  0
  4  5  1  0  0  0  0
  5  6  1  0  0  0  0
  5 20  1  0  0  0  0
  6  7  1  0  0  0  0
  7  8  1  0  0  0  0
  8 17  1  0  0  0  0
  8  9  2  0  0  0  0
  9 10  1  0  0  0  0
 10 15  1  0  0  0  0
 10 11  2  0  0  0  0
 11 12  1  0  0  0  0
 12 13  2  0  0  0  0
 12 18  1  0  0  0  0
 13 14  1  0  0  0  0
 14 15  2  0  0  0  0
 15 16  1  0  0  0  0
 16 17  2  0  0  0  0
 18 19  1  0  0  0  0
 20 21  2  0  0  0  0
 20 23  1  0  0  0  0
 21 22  1  0  0  0  0
 23 28  1  0  0  0  0
 23 24  2  0  0  0  0
 24 25  1  0  0  0  0
 25 26  2  0  0  0  0
 26 27  1  0  0  0  0
 26 29  1  0  0  0  0
 27 28  2  0  0  0  0
 29 30  1  0  0  0  0
 30 31  1  0  0  0  0
 30 32  1  0  0  0  0
M  END
> <MW>
435.39

> <EC50>
1.67

$$$$
MMV672990
 OpenBabel06241423362D

 30 33  0  0  0  0  0  0  0  0999 V2000
   -2.5981    2.5000    0.0000 C    0  0  0  0  0  0  0  0  0  0  0  0
   -3.4641    3.0000    0.0000 N    0  0  0  0  0  0  0  0  0  0  0  0
   -4.3301    2.5000    0.0000 C    0  0  0  0  0  0  0  0  0  0  0  0
   -4.3301    1.5000    0.0000 C    0  0  0  0  0  0  0  0  0  0  0  0
   -3.4641    1.0000    0.0000 N    0  0  0  0  0  0  0  0  0  0  0  0
   -2.5981    1.5000    0.0000 C    0  0  0  0  0  0  0  0  0  0  0  0
   -3.6720    0.0219    0.0000 C    0  0  0  0  0  0  0  0  0  0  0  0
   -4.6665   -0.0827    0.0000 N    0  0  0  0  0  0  0  0  0  0  0  0
   -5.0733    0.8309    0.0000 N    0  0  0  0  0  0  0  0  0  0  0  0
   -3.0029   -0.7213    0.0000 C    0  0  0  0  0  0  0  0  0  0  0  0
   -2.0247   -0.5134    0.0000 C    0  0  0  0  0  0  0  0  0  0  0  0
   -1.3556   -1.2565    0.0000 C    0  0  0  0  0  0  0  0  0  0  0  0
   -1.6646   -2.2076    0.0000 C    0  0  0  0  0  0  0  0  0  0  0  0
   -2.6428   -2.4155    0.0000 C    0  0  0  0  0  0  0  0  0  0  0  0
   -3.3119   -1.6723    0.0000 C    0  0  0  0  0  0  0  0  0  0  0  0
   -0.9955   -2.9507    0.0000 O    0  0  0  0  0  0  0  0  0  0  0  0
   -1.3045   -3.9018    0.0000 C    0  0  0  0  0  0  0  0  0  0  0  0
   -2.2827   -4.1097    0.0000 F    0  0  0  0  0  0  0  0  0  0  0  0
   -0.6354   -4.6449    0.0000 F    0  0  0  0  0  0  0  0  0  0  0  0
   -1.7321    3.0000    0.0000 N    0  0  0  0  0  0  0  0  0  0  0  0
   -0.8660    2.5000    0.0000 C    0  0  0  0  0  0  0  0  0  0  0  0
   -0.8660    1.5000    0.0000 C    0  0  0  0  0  0  0  0  0  0  0  0
    0.0000    1.0000    0.0000 C    0  0  0  0  0  0  0  0  0  0  0  0
    0.8660    1.5000    0.0000 C    0  0  0  0  0  0  0  0  0  0  0  0
    1.7321    1.0000    0.0000 C    0  0  0  0  0  0  0  0  0  0  0  0
    1.7321    0.0000    0.0000 C    0  0  0  0  0  0  0  0  0  0  0  0
    0.8660   -0.5000    0.0000 C    0  0  0  0  0  0  0  0  0  0  0  0
    0.0000    0.0000    0.0000 C    0  0  0  0  0  0  0  0  0  0  0  0
    0.8660   -1.5000    0.0000 Cl   0  0  0  0  0  0  0  0  0  0  0  0
    0.0000    3.0000    0.0000 O    0  0  0  0  0  0  0  0  0  0  0  0
  1  6  2  0  0  0  0
  1  2  1  0  0  0  0
  1 20  1  0  0  0  0
  2  3  2  0  0  0  0
  3  4  1  0  0  0  0
  4  9  2  0  0  0  0
  4  5  1  0  0  0  0
  5  6  1  0  0  0  0
  5  7  1  0  0  0  0
  7  8  2  0  0  0  0
  7 10  1  0  0  0  0
  8  9  1  0  0  0  0
 10 15  1  0  0  0  0
 10 11  2  0  0  0  0
 11 12  1  0  0  0  0
 12 13  2  0  0  0  0
 13 14  1  0  0  0  0
 13 16  1  0  0  0  0
 14 15  2  0  0  0  0
 16 17  1  0  0  0  0
 17 18  1  0  0  0  0
 17 19  1  0  0  0  0
 20 21  1  0  0  0  0
 21 22  1  0  0  0  0
 21 30  2  0  0  0  0
 22 23  1  0  0  0  0
 23 28  1  0  0  0  0
 23 24  2  0  0  0  0
 24 25  1  0  0  0  0
 25 26  2  0  0  0  0
 26 27  1  0  0  0  0
 27 28  2  0  0  0  0
 27 29  1  0  0  0  0
M  END
> <MW>
429.81

> <EC50>
10

$$$$
MMV672992
 OpenBabel06241423362D

 26 29  0  0  0  0  0  0  0  0999 V2000
    3.4641   -1.0000    0.0000 C   0  0  0  0  0  0  0  0  0  0  0  0
    4.3301   -1.5000    0.0000 C   0  0  0  0  0  0  0  0  0  0  0  0
    5.1962   -1.0000    0.0000 C   0  0  0  0  0  0  0  0  0  0  0  0
    5.1962    0.0000    0.0000 C   0  0  0  0  0  0  0  0  0  0  0  0
    4.3301    0.5000    0.0000 N   0  0  0  0  0  0  0  0  0  0  0  0
    3.4641    0.0000    0.0000 N   0  0  0  0  0  0  0  0  0  0  0  0
    4.5380    1.4781    0.0000 C   0  0  0  0  0  0  0  0  0  0  0  0
    5.5326    1.5827    0.0000 N   0  0  0  0  0  0  0  0  0  0  0  0
    5.9393    0.6691    0.0000 N   0  0  0  0  0  0  0  0  0  0  0  0
    3.8689    2.2213    0.0000 C   0  0  0  0  0  0  0  0  0  0  0  0
    2.8908    2.0134    0.0000 C   0  0  0  0  0  0  0  0  0  0  0  0
    2.2216    2.7565    0.0000 C   0  0  0  0  0  0  0  0  0  0  0  0
    2.5306    3.7076    0.0000 C   0  0  0  0  0  0  0  0  0  0  0  0
    3.5088    3.9155    0.0000 C   0  0  0  0  0  0  0  0  0  0  0  0
    4.1779    3.1723    0.0000 C   0  0  0  0  0  0  0  0  0  0  0  0
    1.8615    4.4507    0.0000 C   0  0  0  0  0  0  0  0  0  0  0  0
    1.1924    5.1939    0.0000 N   0  0  0  0  0  0  0  0  0  0  0  0
    2.5981   -1.5000    0.0000 N   0  0  0  0  0  0  0  0  0  0  0  0
    1.7321   -1.0000    0.0000 C   0  0  0  0  0  0  0  0  0  0  0  0
    0.8660   -1.5000    0.0000 C   0  0  0  0  0  0  0  0  0  0  0  0
    0.0000   -1.0000    0.0000 C   0  0  0  0  0  0  0  0  0  0  0  0
   -0.8660   -1.5000    0.0000 C   0  0  0  0  0  0  0  0  0  0  0  0
   -1.7321   -1.0000    0.0000 N   0  0  0  0  0  0  0  0  0  0  0  0
   -1.7321    0.0000    0.0000 C   0  0  0  0  0  0  0  0  0  0  0  0
   -0.8660    0.5000    0.0000 C   0  0  0  0  0  0  0  0  0  0  0  0
    0.0000    0.0000    0.0000 C   0  0  0  0  0  0  0  0  0  0  0  0
  1  6  2  0  0  0  0
  1  2  1  0  0  0  0
  1 18  1  0  0  0  0
  2  3  2  0  0  0  0
  3  4  1  0  0  0  0
  4  9  2  0  0  0  0
  4  5  1  0  0  0  0
  5  6  1  0  0  0  0
  5  7  1  0  0  0  0
  7  8  2  0  0  0  0
  7 10  1  0  0  0  0
  8  9  1  0  0  0  0
 10 15  1  0  0  0  0
 10 11  2  0  0  0  0
 11 12  1  0  0  0  0
 12 13  2  0  0  0  0
 13 14  1  0  0  0  0
 13 16  1  0  0  0  0
 14 15  2  0  0  0  0
 16 17  3  0  0  0  0
 18 19  1  0  0  0  0
 19 20  1  0  0  0  0
 20 21  1  0  0  0  0
 21 26  1  0  0  0  0
 21 22  2  0  0  0  0
 22 23  1  0  0  0  0
 23 24  2  0  0  0  0
 24 25  1  0  0  0  0
 25 26  2  0  0  0  0
M  END
> <MW>
341.38

> <EC50>
10

$$$$
