MMV672990
 OpenBabel06241423362D

 30 33  0  0  0  0  0  0  0  0999 V2000
   -2.5981    2.5000    0.0000 C    0  0  0  0  0  0  0  0  0  0  0  0
   -3.4641    3.0000    0.0000 N    0  0  0  0  0  0  0  0  0  0  0  0
   -4.3301    2.5000    0.0000 C    0  0  0  0  0  0  0  0  0  0  0  0
   -4.3301    1.5000    0.0000 C    0  0  0  0  0  0  0  0  0  0  0  0
   -3.4641    1.0000    0.0000 N    0  0  0  0  0  0  0  0  0  0  0  0
   -2.5981    1.5000    0.0000 C    0  0  0  0  0  0  0  0  0  0  0  0
   -3.6720    0.0219    0.0000 C    0  0  0  0  0  0  0  0  0  0  0  0
   -4.6665   -0.0827    0.0000 N    0  0  0  0  0  0  0  0  0  0  0  0
   -5.0733    0.8309    0.0000 N    0  0  0  0  0  0  0  0  0  0  0  0
   -3.0029   -0.7213    0.0000 C    0  0  0  0  0  0  0  0  0  0  0  0
   -2.0247   -0.5134    0.0000 C    0  0  0  0  0  0  0  0  0  0  0  0
   -1.3556   -1.2565    0.0000 C    0  0  0  0  0  0  0  0  0  0  0  0
   -1.6646   -2.2076    0.0000 C    0  0  0  0  0  0  0  0  0  0  0  0
   -2.6428   -2.4155    0.0000 C    0  0  0  0  0  0  0  0  0  0  0  0
   -3.3119   -1.6723    0.0000 C    0  0  0  0  0  0  0  0  0  0  0  0
   -0.9955   -2.9507    0.0000 O    0  0  0  0  0  0  0  0  0  0  0  0
   -1.3045   -3.9018    0.0000 C    0  0  0  0  0  0  0  0  0  0  0  0
   -2.2827   -4.1097    0.0000 F    0  0  0  0  0  0  0  0  0  0  0  0
   -0.6354   -4.6449    0.0000 F    0  0  0  0  0  0  0  0  0  0  0  0
   -1.7321    3.0000    0.0000 N    0  0  0  0  0  0  0  0  0  0  0  0
   -0.8660    2.5000    0.0000 C    0  0  0  0  0  0  0  0  0  0  0  0
   -0.8660    1.5000    0.0000 C    0  0  0  0  0  0  0  0  0  0  0  0
    0.0000    1.0000    0.0000 C    0  0  0  0  0  0  0  0  0  0  0  0
    0.8660    1.5000    0.0000 C    0  0  0  0  0  0  0  0  0  0  0  0
    1.7321    1.0000    0.0000 C    0  0  0  0  0  0  0  0  0  0  0  0
    1.7321    0.0000    0.0000 C    0  0  0  0  0  0  0  0  0  0  0  0
    0.8660   -0.5000    0.0000 C    0  0  0  0  0  0  0  0  0  0  0  0
    0.0000    0.0000    0.0000 C    0  0  0  0  0  0  0  0  0  0  0  0
    0.8660   -1.5000    0.0000 Cl   0  0  0  0  0  0  0  0  0  0  0  0
    0.0000    3.0000    0.0000 O    0  0  0  0  0  0  0  0  0  0  0  0
  1  6  2  0  0  0  0
  1  2  1  0  0  0  0
  1 20  1  0  0  0  0
  2  3  2  0  0  0  0
  3  4  1  0  0  0  0
  4  9  2  0  0  0  0
  4  5  1  0  0  0  0
  5  6  1  0  0  0  0
  5  7  1  0  0  0  0
  7  8  2  0  0  0  0
  7 10  1  0  0  0  0
  8  9  1  0  0  0  0
 10 15  1  0  0  0  0
 10 11  2  0  0  0  0
 11 12  1  0  0  0  0
 12 13  2  0  0  0  0
 13 14  1  0  0  0  0
 13 16  1  0  0  0  0
 14 15  2  0  0  0  0
 16 17  1  0  0  0  0
 17 18  1  0  0  0  0
 17 19  1  0  0  0  0
 20 21  1  0  0  0  0
 21 22  1  0  0  0  0
 21 30  2  0  0  0  0
 22 23  1  0  0  0  0
 23 28  1  0  0  0  0
 23 24  2  0  0  0  0
 24 25  1  0  0  0  0
 25 26  2  0  0  0  0
 26 27  1  0  0  0  0
 27 28  2  0  0  0  0
 27 29  1  0  0  0  0
M  END
> <MW>
429.81

> <EC50>
10

$$$$
