MMV669024
 OpenBabel06241423362D

 31 34  0  0  1  0  0  0  0  0999 V2000
    3.2564   -2.7044    0.0000 C   0  0  0  0  0  0  0  0  0  0  0  0
    4.1225   -2.2044    0.0000 N   0  0  0  0  0  0  0  0  0  0  0  0
    4.1225   -1.2044    0.0000 C   0  0  0  0  0  0  0  0  0  0  0  0
    3.2564   -0.7044    0.0000 C   0  0  0  0  0  0  0  0  0  0  0  0
    2.3904   -1.2044    0.0000 N   0  0  0  0  0  0  0  0  0  0  0  0
    2.3904   -2.2044    0.0000 C   0  0  0  0  0  0  0  0  0  0  0  0
    1.5244   -2.7044    0.0000 C   0  0  0  0  0  0  0  0  0  0  0  0
    0.6584   -2.2044    0.0000 O   0  0  0  0  0  0  0  0  0  0  0  0
    1.5244   -3.7044    0.0000 N   0  0  0  0  0  0  0  0  0  0  0  0
    0.6584   -4.2044    0.0000 C   0  0  1  0  0  0  0  0  0  0  0  0
    0.1584   -5.0704    0.0000 H   0  0  0  0  0  0  0  0  0  0  0  0
   -0.2077   -3.7044    0.0000 C   0  0  0  0  0  0  0  0  0  0  0  0
   -1.0737   -4.2044    0.0000 C   0  0  0  0  0  0  0  0  0  0  0  0
   -1.9397   -3.7044    0.0000 C   0  0  0  0  0  0  0  0  0  0  0  0
   -1.9397   -2.7044    0.0000 C   0  0  0  0  0  0  0  0  0  0  0  0
   -1.0737   -2.2044    0.0000 C   0  0  0  0  0  0  0  0  0  0  0  0
   -0.2077   -2.7044    0.0000 C   0  0  0  0  0  0  0  0  0  0  0  0
    1.1584   -5.0704    0.0000 C   0  0  0  0  0  0  0  0  0  0  0  0
    1.6473   -0.5352    0.0000 C   0  0  0  0  0  0  0  0  0  0  0  0
    2.0540    0.3783    0.0000 N   0  0  0  0  0  0  0  0  0  0  0  0
    3.0485    0.2738    0.0000 N   0  0  0  0  0  0  0  0  0  0  0  0
    0.6691   -0.7431    0.0000 C   0  0  0  0  0  0  0  0  0  0  0  0
    0.3601   -1.6942    0.0000 C   0  0  0  0  0  0  0  0  0  0  0  0
   -0.6180   -1.9021    0.0000 C   0  0  0  0  0  0  0  0  0  0  0  0
   -1.2872   -1.1590    0.0000 C   0  0  0  0  0  0  0  0  0  0  0  0
   -0.9781   -0.2079    0.0000 C   0  0  0  0  0  0  0  0  0  0  0  0
    0.0000    0.0000    0.0000 C   0  0  0  0  0  0  0  0  0  0  0  0
   -2.2653   -1.3669    0.0000 O   0  0  0  0  0  0  0  0  0  0  0  0
   -2.9344   -0.6237    0.0000 C   0  0  0  0  0  0  0  0  0  0  0  0
   -2.6254    0.3273    0.0000 F   0  0  0  0  0  0  0  0  0  0  0  0
   -3.9126   -0.8316    0.0000 F   0  0  0  0  0  0  0  0  0  0  0  0
  1  6  2  0  0  0  0
  1  2  1  0  0  0  0
  2  3  2  0  0  0  0
  3  4  1  0  0  0  0
  4 21  2  0  0  0  0
  4  5  1  0  0  0  0
  5  6  1  0  0  0  0
  5 19  1  0  0  0  0
  6  7  1  0  0  0  0
  7  8  2  0  0  0  0
  7  9  1  0  0  0  0
  9 10  1  0  0  0  0
 10 11  1  1  0  0  0
 10 12  1  0  0  0  0
 10 18  1  0  0  0  0
 12 17  1  0  0  0  0
 12 13  2  0  0  0  0
 13 14  1  0  0  0  0
 14 15  2  0  0  0  0
 15 16  1  0  0  0  0
 16 17  2  0  0  0  0
 19 20  2  0  0  0  0
 19 22  1  0  0  0  0
 20 21  1  0  0  0  0
 22 27  1  0  0  0  0
 22 23  2  0  0  0  0
 23 24  1  0  0  0  0
 24 25  2  0  0  0  0
 25 26  1  0  0  0  0
 25 28  1  0  0  0  0
 26 27  2  0  0  0  0
 28 29  1  0  0  0  0
 29 30  1  0  0  0  0
 29 31  1  0  0  0  0
M  END
> <MW>
409.4

> <EC50>
1.36

$$$$
