MMV671927
 OpenBabel06241423362D

 29 32  0  0  0  0  0  0  0  0999 V2000
   -3.4641    1.0000    0.0000 C   0  0  0  0  0  0  0  0  0  0  0  0
   -4.3301    1.5000    0.0000 N   0  0  0  0  0  0  0  0  0  0  0  0
   -5.1962    1.0000    0.0000 C   0  0  0  0  0  0  0  0  0  0  0  0
   -5.1962    0.0000    0.0000 C   0  0  0  0  0  0  0  0  0  0  0  0
   -4.3301   -0.5000    0.0000 N   0  0  0  0  0  0  0  0  0  0  0  0
   -3.4641    0.0000    0.0000 C   0  0  0  0  0  0  0  0  0  0  0  0
   -4.5380   -1.4781    0.0000 C   0  0  0  0  0  0  0  0  0  0  0  0
   -5.5326   -1.5827    0.0000 N   0  0  0  0  0  0  0  0  0  0  0  0
   -5.9393   -0.6691    0.0000 N   0  0  0  0  0  0  0  0  0  0  0  0
   -3.8689   -2.2213    0.0000 C   0  0  0  0  0  0  0  0  0  0  0  0
   -2.8908   -2.0134    0.0000 C   0  0  0  0  0  0  0  0  0  0  0  0
   -2.2216   -2.7565    0.0000 C   0  0  0  0  0  0  0  0  0  0  0  0
   -2.5306   -3.7076    0.0000 C   0  0  0  0  0  0  0  0  0  0  0  0
   -3.5088   -3.9155    0.0000 C   0  0  0  0  0  0  0  0  0  0  0  0
   -4.1779   -3.1723    0.0000 C   0  0  0  0  0  0  0  0  0  0  0  0
   -1.8615   -4.4507    0.0000 O   0  0  0  0  0  0  0  0  0  0  0  0
   -2.1705   -5.4018    0.0000 C   0  0  0  0  0  0  0  0  0  0  0  0
   -3.1487   -5.6097    0.0000 F   0  0  0  0  0  0  0  0  0  0  0  0
   -1.5014   -6.1449    0.0000 F   0  0  0  0  0  0  0  0  0  0  0  0
   -2.5981    1.5000    0.0000 N   0  0  0  0  0  0  0  0  0  0  0  0
   -1.7321    1.0000    0.0000 C   0  0  0  0  0  0  0  0  0  0  0  0
   -0.8660    1.5000    0.0000 C   0  0  0  0  0  0  0  0  0  0  0  0
    0.0000    1.0000    0.0000 C   0  0  0  0  0  0  0  0  0  0  0  0
    0.8660    1.5000    0.0000 C   0  0  0  0  0  0  0  0  0  0  0  0
    1.7321    1.0000    0.0000 C   0  0  0  0  0  0  0  0  0  0  0  0
    1.7321    0.0000    0.0000 C   0  0  0  0  0  0  0  0  0  0  0  0
    0.8660   -0.5000    0.0000 C   0  0  0  0  0  0  0  0  0  0  0  0
    0.0000    0.0000    0.0000 C   0  0  0  0  0  0  0  0  0  0  0  0
    2.5981   -0.5000    0.0000 F   0  0  0  0  0  0  0  0  0  0  0  0
  1  6  2  0  0  0  0
  1  2  1  0  0  0  0
  1 20  1  0  0  0  0
  2  3  2  0  0  0  0
  3  4  1  0  0  0  0
  4  9  2  0  0  0  0
  4  5  1  0  0  0  0
  5  6  1  0  0  0  0
  5  7  1  0  0  0  0
  7  8  2  0  0  0  0
  7 10  1  0  0  0  0
  8  9  1  0  0  0  0
 10 15  1  0  0  0  0
 10 11  2  0  0  0  0
 11 12  1  0  0  0  0
 12 13  2  0  0  0  0
 13 14  1  0  0  0  0
 13 16  1  0  0  0  0
 14 15  2  0  0  0  0
 16 17  1  0  0  0  0
 17 18  1  0  0  0  0
 17 19  1  0  0  0  0
 20 21  1  0  0  0  0
 21 22  1  0  0  0  0
 22 23  1  0  0  0  0
 23 28  1  0  0  0  0
 23 24  2  0  0  0  0
 24 25  1  0  0  0  0
 25 26  2  0  0  0  0
 26 27  1  0  0  0  0
 26 29  1  0  0  0  0
 27 28  2  0  0  0  0
M  END
> <MW>
399.38

> <EC50>
10

$$$$
