MMV672726
 OpenBabel06241423362D

 31 35  0  0  1  0  0  0  0  0999 V2000
    3.9703    1.4680    0.0000 C    0  0  0  0  0  0  0  0  0  0  0  0
    3.9703    2.4680    0.0000 N    0  0  0  0  0  0  0  0  0  0  0  0
    3.1042    2.9680    0.0000 C    0  0  0  0  0  0  0  0  0  0  0  0
    2.2382    2.4680    0.0000 C    0  0  0  0  0  0  0  0  0  0  0  0
    2.2382    1.4680    0.0000 N    0  0  0  0  0  0  0  0  0  0  0  0
    3.1042    0.9680    0.0000 C    0  0  0  0  0  0  0  0  0  0  0  0
    3.1042   -0.0320    0.0000 O    0  0  0  0  0  0  0  0  0  0  0  0
    3.9703   -0.5320    0.0000 C    0  0  0  0  0  0  0  0  0  0  0  0
    4.8363   -0.0320    0.0000 C    0  0  3  0  0  0  0  0  0  0  0  0
    4.9408    0.9625    0.0000 C    0  0  0  0  0  0  0  0  0  0  0  0
    5.9190    1.1704    0.0000 C    0  0  0  0  0  0  0  0  0  0  0  0
    6.4190    0.3044    0.0000 C    0  0  0  0  0  0  0  0  0  0  0  0
    5.7498   -0.4388    0.0000 C    0  0  0  0  0  0  0  0  0  0  0  0
    6.0589   -1.3898    0.0000 C    0  0  0  0  0  0  0  0  0  0  0  0
    7.0370   -1.5977    0.0000 C    0  0  0  0  0  0  0  0  0  0  0  0
    7.7061   -0.8546    0.0000 C    0  0  0  0  0  0  0  0  0  0  0  0
    7.3971    0.0965    0.0000 C    0  0  0  0  0  0  0  0  0  0  0  0
    8.6843   -1.0625    0.0000 Cl   0  0  0  0  0  0  0  0  0  0  0  0
    1.2872    1.1590    0.0000 C    0  0  0  0  0  0  0  0  0  0  0  0
    0.6994    1.9680    0.0000 N    0  0  0  0  0  0  0  0  0  0  0  0
    1.2872    2.7770    0.0000 N    0  0  0  0  0  0  0  0  0  0  0  0
    0.9781    0.2079    0.0000 C    0  0  0  0  0  0  0  0  0  0  0  0
    1.6473   -0.5352    0.0000 C    0  0  0  0  0  0  0  0  0  0  0  0
    1.3383   -1.4863    0.0000 C    0  0  0  0  0  0  0  0  0  0  0  0
    0.3601   -1.6942    0.0000 C    0  0  0  0  0  0  0  0  0  0  0  0
   -0.3090   -0.9511    0.0000 C    0  0  0  0  0  0  0  0  0  0  0  0
    0.0000    0.0000    0.0000 C    0  0  0  0  0  0  0  0  0  0  0  0
    0.0511   -2.6453    0.0000 O    0  0  0  0  0  0  0  0  0  0  0  0
    0.7202   -3.3884    0.0000 C    0  0  0  0  0  0  0  0  0  0  0  0
    0.4112   -4.3395    0.0000 F    0  0  0  0  0  0  0  0  0  0  0  0
    1.6984   -3.1805    0.0000 F    0  0  0  0  0  0  0  0  0  0  0  0
  1  6  2  0  0  0  0
  1  2  1  0  0  0  0
  2  3  2  0  0  0  0
  3  4  1  0  0  0  0
  4 21  2  0  0  0  0
  4  5  1  0  0  0  0
  5  6  1  0  0  0  0
  5 19  1  0  0  0  0
  6  7  1  0  0  0  0
  7  8  1  0  0  0  0
  8  9  1  0  0  0  0
  9 13  1  0  0  0  0
  9 10  1  0  0  0  0
 10 11  1  0  0  0  0
 11 12  1  0  0  0  0
 12 17  1  0  0  0  0
 12 13  2  0  0  0  0
 13 14  1  0  0  0  0
 14 15  2  0  0  0  0
 15 16  1  0  0  0  0
 16 17  2  0  0  0  0
 16 18  1  0  0  0  0
 19 20  2  0  0  0  0
 19 22  1  0  0  0  0
 20 21  1  0  0  0  0
 22 27  1  0  0  0  0
 22 23  2  0  0  0  0
 23 24  1  0  0  0  0
 24 25  2  0  0  0  0
 25 26  1  0  0  0  0
 25 28  1  0  0  0  0
 26 27  2  0  0  0  0
 28 29  1  0  0  0  0
 29 30  1  0  0  0  0
 29 31  1  0  0  0  0
M  END
> <MW>
442.85

> <EC50>
1.459

$$$$
