MMV670438
 OpenBabel06241423362D

 33 37  0  0  0  0  0  0  0  0999 V2000
    1.0000    0.0000    0.0000 C   0  0  0  0  0  0  0  0  0  0  0  0
    0.0000    0.0000    0.0000 C   0  0  0  0  0  0  0  0  0  0  0  0
    0.0000    1.0000    0.0000 O   0  0  0  0  0  0  0  0  0  0  0  0
    1.0000    1.0000    0.0000 C   0  0  0  0  0  0  0  0  0  0  0  0
    1.2588   -0.9659    0.0000 C   0  0  0  0  0  0  0  0  0  0  0  0
    0.5517   -1.6730    0.0000 O   0  0  0  0  0  0  0  0  0  0  0  0
    0.8105   -2.6390    0.0000 C   0  0  0  0  0  0  0  0  0  0  0  0
    1.7765   -2.8978    0.0000 C   0  0  0  0  0  0  0  0  0  0  0  0
    2.0353   -3.8637    0.0000 N   0  0  0  0  0  0  0  0  0  0  0  0
    1.3282   -4.5708    0.0000 C   0  0  0  0  0  0  0  0  0  0  0  0
    0.3622   -4.3120    0.0000 C   0  0  0  0  0  0  0  0  0  0  0  0
    0.1034   -3.3461    0.0000 N   0  0  0  0  0  0  0  0  0  0  0  0
   -0.8952   -3.2937    0.0000 C   0  0  0  0  0  0  0  0  0  0  0  0
   -1.2536   -4.2273    0.0000 N   0  0  0  0  0  0  0  0  0  0  0  0
   -0.4764   -4.8566    0.0000 N   0  0  0  0  0  0  0  0  0  0  0  0
   -1.4398   -2.4551    0.0000 C   0  0  0  0  0  0  0  0  0  0  0  0
   -2.4385   -2.5074    0.0000 C   0  0  0  0  0  0  0  0  0  0  0  0
   -2.9831   -1.6687    0.0000 C   0  0  0  0  0  0  0  0  0  0  0  0
   -2.5291   -0.7777    0.0000 C   0  0  0  0  0  0  0  0  0  0  0  0
   -1.5305   -0.7254    0.0000 C   0  0  0  0  0  0  0  0  0  0  0  0
   -0.9859   -1.5641    0.0000 C   0  0  0  0  0  0  0  0  0  0  0  0
   -3.0738    0.0610    0.0000 O   0  0  0  0  0  0  0  0  0  0  0  0
   -2.6198    0.9520    0.0000 C   0  0  0  0  0  0  0  0  0  0  0  0
   -1.6211    1.0043    0.0000 F   0  0  0  0  0  0  0  0  0  0  0  0
   -3.1644    1.7906    0.0000 F   0  0  0  0  0  0  0  0  0  0  0  0
    1.9659   -0.2588    0.0000 C   0  0  0  0  0  0  0  0  0  0  0  0
    2.6730    0.4483    0.0000 C   0  0  0  0  0  0  0  0  0  0  0  0
    3.6390    0.1895    0.0000 C   0  0  0  0  0  0  0  0  0  0  0  0
    3.8978   -0.7765    0.0000 C   0  0  0  0  0  0  0  0  0  0  0  0
    3.1907   -1.4836    0.0000 C   0  0  0  0  0  0  0  0  0  0  0  0
    2.2247   -1.2247    0.0000 C   0  0  0  0  0  0  0  0  0  0  0  0
    4.8637   -1.0353    0.0000 F   0  0  0  0  0  0  0  0  0  0  0  0
    4.3461    0.8966    0.0000 F   0  0  0  0  0  0  0  0  0  0  0  0
  1  4  1  0  0  0  0
  1  2  1  0  0  0  0
  1  5  1  0  0  0  0
  1 26  1  0  0  0  0
  2  3  1  0  0  0  0
  3  4  1  0  0  0  0
  5  6  1  0  0  0  0
  6  7  1  0  0  0  0
  7 12  1  0  0  0  0
  7  8  2  0  0  0  0
  8  9  1  0  0  0  0
  9 10  2  0  0  0  0
 10 11  1  0  0  0  0
 11 15  2  0  0  0  0
 11 12  1  0  0  0  0
 12 13  1  0  0  0  0
 13 14  2  0  0  0  0
 13 16  1  0  0  0  0
 14 15  1  0  0  0  0
 16 21  1  0  0  0  0
 16 17  2  0  0  0  0
 17 18  1  0  0  0  0
 18 19  2  0  0  0  0
 19 20  1  0  0  0  0
 19 22  1  0  0  0  0
 20 21  2  0  0  0  0
 22 23  1  0  0  0  0
 23 24  1  0  0  0  0
 23 25  1  0  0  0  0
 26 31  1  0  0  0  0
 26 27  2  0  0  0  0
 27 28  1  0  0  0  0
 28 29  2  0  0  0  0
 28 33  1  0  0  0  0
 29 30  1  0  0  0  0
 29 32  1  0  0  0  0
 30 31  2  0  0  0  0
M  END
> <MW>
460.39

> <EC50>
0.4833

$$$$
