MMV669103
 OpenBabel06241423362D

 34 37  0  0  0  0  0  0  0  0999 V2000
   -1.0000   -1.0000    0.0000 N   0  0  0  0  0  0  0  0  0  0  0  0
   -1.5000   -0.1340    0.0000 C   0  0  0  0  0  0  0  0  0  0  0  0
   -1.0000    0.7321    0.0000 C   0  0  0  0  0  0  0  0  0  0  0  0
   -1.5000    1.5981    0.0000 N   0  0  0  0  0  0  0  0  0  0  0  0
   -2.5000    1.5981    0.0000 C   0  0  0  0  0  0  0  0  0  0  0  0
   -3.0000    0.7321    0.0000 C   0  0  0  0  0  0  0  0  0  0  0  0
   -2.5000   -0.1340    0.0000 N   0  0  0  0  0  0  0  0  0  0  0  0
   -3.1691   -0.8771    0.0000 C   0  0  0  0  0  0  0  0  0  0  0  0
   -4.0827   -0.4704    0.0000 N   0  0  0  0  0  0  0  0  0  0  0  0
   -3.9781    0.5241    0.0000 N   0  0  0  0  0  0  0  0  0  0  0  0
   -2.9612   -1.8553    0.0000 C   0  0  0  0  0  0  0  0  0  0  0  0
   -2.0102   -2.1643    0.0000 C   0  0  0  0  0  0  0  0  0  0  0  0
   -1.8023   -3.1424    0.0000 C   0  0  0  0  0  0  0  0  0  0  0  0
   -2.5454   -3.8116    0.0000 C   0  0  0  0  0  0  0  0  0  0  0  0
   -3.4965   -3.5025    0.0000 C   0  0  0  0  0  0  0  0  0  0  0  0
   -3.7044   -2.5244    0.0000 C   0  0  0  0  0  0  0  0  0  0  0  0
   -2.3375   -4.7897    0.0000 O   0  0  0  0  0  0  0  0  0  0  0  0
   -1.3864   -5.0987    0.0000 C   0  0  0  0  0  0  0  0  0  0  0  0
   -1.1785   -6.0769    0.0000 F   0  0  0  0  0  0  0  0  0  0  0  0
   -0.6433   -4.4296    0.0000 F   0  0  0  0  0  0  0  0  0  0  0  0
    0.0000   -1.0000    0.0000 S   0  0  0  0  0  0  0  0  0  0  0  0
    0.0000   -2.0000    0.0000 C   0  0  0  0  0  0  0  0  0  0  0  0
    0.8660   -2.5000    0.0000 C   0  0  0  0  0  0  0  0  0  0  0  0
    1.7321   -2.0000    0.0000 C   0  0  0  0  0  0  0  0  0  0  0  0
    2.5981   -2.5000    0.0000 C   0  0  0  0  0  0  0  0  0  0  0  0
    2.5981   -3.5000    0.0000 C   0  0  0  0  0  0  0  0  0  0  0  0
    1.7321   -4.0000    0.0000 C   0  0  0  0  0  0  0  0  0  0  0  0
    0.8660   -3.5000    0.0000 C   0  0  0  0  0  0  0  0  0  0  0  0
    3.4641   -4.0000    0.0000 C   0  0  0  0  0  0  0  0  0  0  0  0
    4.4641   -4.0000    0.0000 F   0  0  0  0  0  0  0  0  0  0  0  0
    3.9641   -3.1340    0.0000 F   0  0  0  0  0  0  0  0  0  0  0  0
    3.4641   -5.0000    0.0000 F   0  0  0  0  0  0  0  0  0  0  0  0
    1.0000   -1.0000    0.0000 O   0  0  0  0  0  0  0  0  0  0  0  0
    0.0000    0.0000    0.0000 O   0  0  0  0  0  0  0  0  0  0  0  0
  1  2  1  0  0  0  0
  1 21  1  0  0  0  0
  2  7  1  0  0  0  0
  2  3  2  0  0  0  0
  3  4  1  0  0  0  0
  4  5  2  0  0  0  0
  5  6  1  0  0  0  0
  6 10  2  0  0  0  0
  6  7  1  0  0  0  0
  7  8  1  0  0  0  0
  8  9  2  0  0  0  0
  8 11  1  0  0  0  0
  9 10  1  0  0  0  0
 11 16  1  0  0  0  0
 11 12  2  0  0  0  0
 12 13  1  0  0  0  0
 13 14  2  0  0  0  0
 14 15  1  0  0  0  0
 14 17  1  0  0  0  0
 15 16  2  0  0  0  0
 17 18  1  0  0  0  0
 18 19  1  0  0  0  0
 18 20  1  0  0  0  0
 21 22  1  0  0  0  0
 21 33  2  0  0  0  0
 21 34  2  0  0  0  0
 22 23  1  0  0  0  0
 23 28  1  0  0  0  0
 23 24  2  0  0  0  0
 24 25  1  0  0  0  0
 25 26  2  0  0  0  0
 26 27  1  0  0  0  0
 26 29  1  0  0  0  0
 27 28  2  0  0  0  0
 29 30  1  0  0  0  0
 29 31  1  0  0  0  0
 29 32  1  0  0  0  0
M  END
> <MW>
499.42

> <EC50>
10

$$$$
