MMV672727
 OpenBabel06241423362D

 32 35  0  0  1  0  0  0  0  0999 V2000
   -0.8660    1.5000    0.0000 C   0  0  3  0  0  0  0  0  0  0  0  0
   -1.7321    1.0000    0.0000 C   0  0  0  0  0  0  0  0  0  0  0  0
   -2.5981    1.5000    0.0000 O   0  0  0  0  0  0  0  0  0  0  0  0
   -3.4641    1.0000    0.0000 C   0  0  0  0  0  0  0  0  0  0  0  0
   -3.4641    0.0000    0.0000 C   0  0  0  0  0  0  0  0  0  0  0  0
   -4.3301   -0.5000    0.0000 N   0  0  0  0  0  0  0  0  0  0  0  0
   -5.1962    0.0000    0.0000 C   0  0  0  0  0  0  0  0  0  0  0  0
   -5.1962    1.0000    0.0000 C   0  0  0  0  0  0  0  0  0  0  0  0
   -4.3301    1.5000    0.0000 N   0  0  0  0  0  0  0  0  0  0  0  0
   -4.5380    2.4781    0.0000 C   0  0  0  0  0  0  0  0  0  0  0  0
   -5.5326    2.5827    0.0000 N   0  0  0  0  0  0  0  0  0  0  0  0
   -5.9393    1.6691    0.0000 N   0  0  0  0  0  0  0  0  0  0  0  0
   -3.8689    3.2213    0.0000 C   0  0  0  0  0  0  0  0  0  0  0  0
   -2.8908    3.0134    0.0000 C   0  0  0  0  0  0  0  0  0  0  0  0
   -2.2216    3.7565    0.0000 C   0  0  0  0  0  0  0  0  0  0  0  0
   -2.5306    4.7076    0.0000 C   0  0  0  0  0  0  0  0  0  0  0  0
   -3.5088    4.9155    0.0000 C   0  0  0  0  0  0  0  0  0  0  0  0
   -4.1779    4.1723    0.0000 C   0  0  0  0  0  0  0  0  0  0  0  0
   -1.8615    5.4507    0.0000 O   0  0  0  0  0  0  0  0  0  0  0  0
   -2.1705    6.4018    0.0000 C   0  0  0  0  0  0  0  0  0  0  0  0
   -3.1487    6.6097    0.0000 F   0  0  0  0  0  0  0  0  0  0  0  0
   -1.5014    7.1449    0.0000 F   0  0  0  0  0  0  0  0  0  0  0  0
    0.0000    1.0000    0.0000 C   0  0  0  0  0  0  0  0  0  0  0  0
    0.8660    1.5000    0.0000 C   0  0  0  0  0  0  0  0  0  0  0  0
    1.7321    1.0000    0.0000 C   0  0  0  0  0  0  0  0  0  0  0  0
    1.7321    0.0000    0.0000 C   0  0  0  0  0  0  0  0  0  0  0  0
    0.8660   -0.5000    0.0000 C   0  0  0  0  0  0  0  0  0  0  0  0
    0.0000    0.0000    0.0000 C   0  0  0  0  0  0  0  0  0  0  0  0
    0.8660   -1.5000    0.0000 F   0  0  0  0  0  0  0  0  0  0  0  0
    2.5981   -0.5000    0.0000 F   0  0  0  0  0  0  0  0  0  0  0  0
   -0.3660    2.3660    0.0000 F   0  0  0  0  0  0  0  0  0  0  0  0
   -1.3660    2.3660    0.0000 C   0  0  0  0  0  0  0  0  0  0  0  0
  1  2  1  0  0  0  0
  1 23  1  0  0  0  0
  1 31  1  0  0  0  0
  1 32  1  0  0  0  0
  2  3  1  0  0  0  0
  3  4  1  0  0  0  0
  4  9  1  0  0  0  0
  4  5  2  0  0  0  0
  5  6  1  0  0  0  0
  6  7  2  0  0  0  0
  7  8  1  0  0  0  0
  8 12  2  0  0  0  0
  8  9  1  0  0  0  0
  9 10  1  0  0  0  0
 10 11  2  0  0  0  0
 10 13  1  0  0  0  0
 11 12  1  0  0  0  0
 13 18  1  0  0  0  0
 13 14  2  0  0  0  0
 14 15  1  0  0  0  0
 15 16  2  0  0  0  0
 16 17  1  0  0  0  0
 16 19  1  0  0  0  0
 17 18  2  0  0  0  0
 19 20  1  0  0  0  0
 20 21  1  0  0  0  0
 20 22  1  0  0  0  0
 23 28  1  0  0  0  0
 23 24  2  0  0  0  0
 24 25  1  0  0  0  0
 25 26  2  0  0  0  0
 26 27  1  0  0  0  0
 26 30  1  0  0  0  0
 27 28  2  0  0  0  0
 27 29  1  0  0  0  0
M  END
> <MW>
450.37

> <EC50>
0.1228

$$$$
