MMV669848
 OpenBabel06241423362D

 29 33  0  0  0  0  0  0  0  0999 V2000
   -2.3230    2.0032    0.0000 C   0  0  0  0  0  0  0  0  0  0  0  0
   -2.3230    3.0032    0.0000 N   0  0  0  0  0  0  0  0  0  0  0  0
   -1.4570    3.5032    0.0000 C   0  0  0  0  0  0  0  0  0  0  0  0
   -0.5909    3.0032    0.0000 C   0  0  0  0  0  0  0  0  0  0  0  0
    0.3601    3.3122    0.0000 N   0  0  0  0  0  0  0  0  0  0  0  0
    0.9479    2.5032    0.0000 N   0  0  0  0  0  0  0  0  0  0  0  0
    0.3601    1.6942    0.0000 C   0  0  0  0  0  0  0  0  0  0  0  0
   -0.5909    2.0032    0.0000 N   0  0  0  0  0  0  0  0  0  0  0  0
   -1.4570    1.5032    0.0000 C   0  0  0  0  0  0  0  0  0  0  0  0
   -1.4570    0.5032    0.0000 C   0  0  0  0  0  0  0  0  0  0  0  0
   -2.3230    0.0032    0.0000 N   0  0  0  0  0  0  0  0  0  0  0  0
   -3.2365    0.4100    0.0000 C   0  0  0  0  0  0  0  0  0  0  0  0
   -3.9057   -0.3332    0.0000 C   0  0  0  0  0  0  0  0  0  0  0  0
   -3.4057   -1.1992    0.0000 C   0  0  0  0  0  0  0  0  0  0  0  0
   -2.4275   -0.9913    0.0000 C   0  0  0  0  0  0  0  0  0  0  0  0
   -3.9057   -2.0652    0.0000 C   0  0  0  0  0  0  0  0  0  0  0  0
   -4.9057   -2.0652    0.0000 C   0  0  0  0  0  0  0  0  0  0  0  0
   -5.4057   -1.1992    0.0000 C   0  0  0  0  0  0  0  0  0  0  0  0
   -4.9057   -0.3332    0.0000 C   0  0  0  0  0  0  0  0  0  0  0  0
    0.6691    0.7431    0.0000 C   0  0  0  0  0  0  0  0  0  0  0  0
    1.6473    0.5352    0.0000 C   0  0  0  0  0  0  0  0  0  0  0  0
    1.9563   -0.4158    0.0000 C   0  0  0  0  0  0  0  0  0  0  0  0
    1.2872   -1.1590    0.0000 C   0  0  0  0  0  0  0  0  0  0  0  0
    0.3090   -0.9511    0.0000 C   0  0  0  0  0  0  0  0  0  0  0  0
    0.0000    0.0000    0.0000 C   0  0  0  0  0  0  0  0  0  0  0  0
    1.5962   -2.1100    0.0000 O   0  0  0  0  0  0  0  0  0  0  0  0
    2.5743   -2.3179    0.0000 C   0  0  0  0  0  0  0  0  0  0  0  0
    2.8833   -3.2690    0.0000 F   0  0  0  0  0  0  0  0  0  0  0  0
    3.2435   -1.5748    0.0000 F   0  0  0  0  0  0  0  0  0  0  0  0
  1  9  2  0  0  0  0
  1  2  1  0  0  0  0
  2  3  2  0  0  0  0
  3  4  1  0  0  0  0
  4  8  1  0  0  0  0
  4  5  2  0  0  0  0
  5  6  1  0  0  0  0
  6  7  2  0  0  0  0
  7  8  1  0  0  0  0
  7 20  1  0  0  0  0
  8  9  1  0  0  0  0
  9 10  1  0  0  0  0
 10 11  1  0  0  0  0
 11 15  1  0  0  0  0
 11 12  1  0  0  0  0
 12 13  1  0  0  0  0
 13 19  1  0  0  0  0
 13 14  2  0  0  0  0
 14 15  1  0  0  0  0
 14 16  1  0  0  0  0
 16 17  2  0  0  0  0
 17 18  1  0  0  0  0
 18 19  2  0  0  0  0
 20 25  1  0  0  0  0
 20 21  2  0  0  0  0
 21 22  1  0  0  0  0
 22 23  2  0  0  0  0
 23 24  1  0  0  0  0
 23 26  1  0  0  0  0
 24 25  2  0  0  0  0
 26 27  1  0  0  0  0
 27 28  1  0  0  0  0
 27 29  1  0  0  0  0
M  END
> <MW>
393.4

> <EC50>
0.11

$$$$
