MMV671678
 OpenBabel06241423362D

 33 37  0  0  0  0  0  0  0  0999 V2000
   -3.3223   -2.6230    0.0000 C   0  0  0  0  0  0  0  0  0  0  0  0
   -3.0133   -3.5741    0.0000 N   0  0  0  0  0  0  0  0  0  0  0  0
   -2.0352   -3.7820    0.0000 C   0  0  0  0  0  0  0  0  0  0  0  0
   -1.3660   -3.0388    0.0000 C   0  0  0  0  0  0  0  0  0  0  0  0
   -1.6750   -2.0878    0.0000 N   0  0  0  0  0  0  0  0  0  0  0  0
   -2.6532   -1.8799    0.0000 C   0  0  0  0  0  0  0  0  0  0  0  0
   -2.9622   -0.9288    0.0000 N   0  0  0  0  0  0  0  0  0  0  0  0
   -2.3744   -0.1198    0.0000 C   0  0  0  0  0  0  0  0  0  0  0  0
   -2.9622    0.6892    0.0000 C   0  0  0  0  0  0  0  0  0  0  0  0
   -3.9133    0.3802    0.0000 N   0  0  0  0  0  0  0  0  0  0  0  0
   -3.9133   -0.6198    0.0000 C   0  0  0  0  0  0  0  0  0  0  0  0
   -4.7223   -1.2076    0.0000 C   0  0  0  0  0  0  0  0  0  0  0  0
   -5.6358   -0.8008    0.0000 C   0  0  0  0  0  0  0  0  0  0  0  0
   -5.7404    0.1937    0.0000 C   0  0  0  0  0  0  0  0  0  0  0  0
   -6.6539    0.6004    0.0000 C   0  0  0  0  0  0  0  0  0  0  0  0
   -7.4629    0.0126    0.0000 C   0  0  0  0  0  0  0  0  0  0  0  0
   -7.3584   -0.9819    0.0000 C   0  0  0  0  0  0  0  0  0  0  0  0
   -6.4448   -1.3886    0.0000 C   0  0  0  0  0  0  0  0  0  0  0  0
   -8.3765    0.4194    0.0000 F   0  0  0  0  0  0  0  0  0  0  0  0
   -6.7584    1.5949    0.0000 F   0  0  0  0  0  0  0  0  0  0  0  0
   -0.8660   -1.5000    0.0000 C   0  0  0  0  0  0  0  0  0  0  0  0
   -0.0570   -2.0878    0.0000 N   0  0  0  0  0  0  0  0  0  0  0  0
   -0.3660   -3.0388    0.0000 N   0  0  0  0  0  0  0  0  0  0  0  0
   -0.8660   -0.5000    0.0000 C   0  0  0  0  0  0  0  0  0  0  0  0
   -1.7321    0.0000    0.0000 C   0  0  0  0  0  0  0  0  0  0  0  0
   -1.7321    1.0000    0.0000 C   0  0  0  0  0  0  0  0  0  0  0  0
   -0.8660    1.5000    0.0000 C   0  0  0  0  0  0  0  0  0  0  0  0
    0.0000    1.0000    0.0000 C   0  0  0  0  0  0  0  0  0  0  0  0
    0.0000    0.0000    0.0000 C   0  0  0  0  0  0  0  0  0  0  0  0
   -0.8660    2.5000    0.0000 O   0  0  0  0  0  0  0  0  0  0  0  0
    0.0000    3.0000    0.0000 C   0  0  0  0  0  0  0  0  0  0  0  0
    0.8660    2.5000    0.0000 F   0  0  0  0  0  0  0  0  0  0  0  0
    0.0000    4.0000    0.0000 F   0  0  0  0  0  0  0  0  0  0  0  0
  1  6  2  0  0  0  0
  1  2  1  0  0  0  0
  2  3  2  0  0  0  0
  3  4  1  0  0  0  0
  4 23  2  0  0  0  0
  4  5  1  0  0  0  0
  5  6  1  0  0  0  0
  5 21  1  0  0  0  0
  6  7  1  0  0  0  0
  7 11  1  0  0  0  0
  7  8  1  0  0  0  0
  8  9  2  0  0  0  0
  9 10  1  0  0  0  0
 10 11  2  0  0  0  0
 11 12  1  0  0  0  0
 12 13  1  0  0  0  0
 13 18  1  0  0  0  0
 13 14  2  0  0  0  0
 14 15  1  0  0  0  0
 15 16  2  0  0  0  0
 15 20  1  0  0  0  0
 16 17  1  0  0  0  0
 16 19  1  0  0  0  0
 17 18  2  0  0  0  0
 21 22  2  0  0  0  0
 21 24  1  0  0  0  0
 22 23  1  0  0  0  0
 24 29  1  0  0  0  0
 24 25  2  0  0  0  0
 25 26  1  0  0  0  0
 26 27  2  0  0  0  0
 27 28  1  0  0  0  0
 27 30  1  0  0  0  0
 28 29  2  0  0  0  0
 30 31  1  0  0  0  0
 31 32  1  0  0  0  0
 31 33  1  0  0  0  0
M  END
> <MW>
454.39

> <EC50>
10

$$$$
