MMV670249
 OpenBabel06241423362D

 30 34  0  0  0  0  0  0  0  0999 V2000
   -1.9910   -4.1348    0.0000 C   0  0  0  0  0  0  0  0  0  0  0  0
   -2.8570   -4.6348    0.0000 N   0  0  0  0  0  0  0  0  0  0  0  0
   -3.7230   -4.1348    0.0000 C   0  0  0  0  0  0  0  0  0  0  0  0
   -3.7230   -3.1348    0.0000 C   0  0  0  0  0  0  0  0  0  0  0  0
   -4.4662   -2.4657    0.0000 N   0  0  0  0  0  0  0  0  0  0  0  0
   -4.0594   -1.5522    0.0000 N   0  0  0  0  0  0  0  0  0  0  0  0
   -3.0649   -1.6567    0.0000 C   0  0  0  0  0  0  0  0  0  0  0  0
   -2.8570   -2.6348    0.0000 N   0  0  0  0  0  0  0  0  0  0  0  0
   -1.9910   -3.1348    0.0000 C   0  0  0  0  0  0  0  0  0  0  0  0
   -1.1249   -2.6348    0.0000 O   0  0  0  0  0  0  0  0  0  0  0  0
   -0.2589   -3.1348    0.0000 C   0  0  0  0  0  0  0  0  0  0  0  0
    0.6071   -2.6348    0.0000 C   0  0  0  0  0  0  0  0  0  0  0  0
    1.4731   -3.1348    0.0000 C   0  0  0  0  0  0  0  0  0  0  0  0
    1.4731   -4.1348    0.0000 C   0  0  0  0  0  0  0  0  0  0  0  0
    2.3392   -4.6348    0.0000 C   0  0  0  0  0  0  0  0  0  0  0  0
    3.2052   -4.1348    0.0000 C   0  0  0  0  0  0  0  0  0  0  0  0
    3.2052   -3.1348    0.0000 C   0  0  0  0  0  0  0  0  0  0  0  0
    2.3392   -2.6348    0.0000 C   0  0  0  0  0  0  0  0  0  0  0  0
    4.0712   -2.6348    0.0000 F   0  0  0  0  0  0  0  0  0  0  0  0
    4.0712   -4.6348    0.0000 F   0  0  0  0  0  0  0  0  0  0  0  0
   -2.3958   -0.9135    0.0000 N   0  0  0  0  0  0  0  0  0  0  0  0
   -2.6037    0.0646    0.0000 C   0  0  0  0  0  0  0  0  0  0  0  0
   -1.7377    0.5646    0.0000 C   0  0  0  0  0  0  0  0  0  0  0  0
   -0.9945   -0.1045    0.0000 C   0  0  0  0  0  0  0  0  0  0  0  0
   -1.4013   -1.0181    0.0000 C   0  0  0  0  0  0  0  0  0  0  0  0
   -0.8135   -1.8271    0.0000 C   0  0  0  0  0  0  0  0  0  0  0  0
    0.1810   -1.7226    0.0000 C   0  0  0  0  0  0  0  0  0  0  0  0
    0.5878   -0.8090    0.0000 C   0  0  0  0  0  0  0  0  0  0  0  0
    0.0000    0.0000    0.0000 C   0  0  0  0  0  0  0  0  0  0  0  0
    1.5823   -0.7045    0.0000 F   0  0  0  0  0  0  0  0  0  0  0  0
  1  9  2  0  0  0  0
  1  2  1  0  0  0  0
  2  3  2  0  0  0  0
  3  4  1  0  0  0  0
  4  8  1  0  0  0  0
  4  5  2  0  0  0  0
  5  6  1  0  0  0  0
  6  7  2  0  0  0  0
  7  8  1  0  0  0  0
  7 21  1  0  0  0  0
  8  9  1  0  0  0  0
  9 10  1  0  0  0  0
 10 11  1  0  0  0  0
 11 12  1  0  0  0  0
 12 13  1  0  0  0  0
 13 18  1  0  0  0  0
 13 14  2  0  0  0  0
 14 15  1  0  0  0  0
 15 16  2  0  0  0  0
 16 17  1  0  0  0  0
 16 20  1  0  0  0  0
 17 18  2  0  0  0  0
 17 19  1  0  0  0  0
 21 25  1  0  0  0  0
 21 22  1  0  0  0  0
 22 23  1  0  0  0  0
 23 24  1  0  0  0  0
 24 29  1  0  0  0  0
 24 25  2  0  0  0  0
 25 26  1  0  0  0  0
 26 27  2  0  0  0  0
 27 28  1  0  0  0  0
 28 29  2  0  0  0  0
 28 30  1  0  0  0  0
M  END
> <MW>
411.39

> <EC50>
2.05

$$$$
