MMV669023
 OpenBabel06241423362D

 31 34  0  0  0  0  0  0  0  0999 V2000
    4.0000   -2.7321    0.0000 C   0  0  0  0  0  0  0  0  0  0  0  0
    4.5000   -3.5981    0.0000 N   0  0  0  0  0  0  0  0  0  0  0  0
    5.5000   -3.5981    0.0000 C   0  0  0  0  0  0  0  0  0  0  0  0
    6.0000   -2.7321    0.0000 C   0  0  0  0  0  0  0  0  0  0  0  0
    5.5000   -1.8660    0.0000 N   0  0  0  0  0  0  0  0  0  0  0  0
    4.5000   -1.8660    0.0000 C   0  0  0  0  0  0  0  0  0  0  0  0
    4.0000   -1.0000    0.0000 C   0  0  0  0  0  0  0  0  0  0  0  0
    3.0000   -1.0000    0.0000 N   0  0  0  0  0  0  0  0  0  0  0  0
    2.5000   -0.1340    0.0000 C   0  0  0  0  0  0  0  0  0  0  0  0
    1.5000   -0.1340    0.0000 C   0  0  0  0  0  0  0  0  0  0  0  0
    1.0000   -1.0000    0.0000 N   0  0  0  0  0  0  0  0  0  0  0  0
    1.5000   -1.8660    0.0000 C   0  0  0  0  0  0  0  0  0  0  0  0
    2.5000   -1.8660    0.0000 C   0  0  0  0  0  0  0  0  0  0  0  0
    0.0000   -1.0000    0.0000 S   0  0  0  0  0  0  0  0  0  0  0  0
    0.0000   -2.0000    0.0000 O   0  0  0  0  0  0  0  0  0  0  0  0
   -1.0000   -1.0000    0.0000 C   0  0  0  0  0  0  0  0  0  0  0  0
    0.0000    0.0000    0.0000 O   0  0  0  0  0  0  0  0  0  0  0  0
    4.5000   -0.1340    0.0000 O   0  0  0  0  0  0  0  0  0  0  0  0
    6.1691   -1.1229    0.0000 C   0  0  0  0  0  0  0  0  0  0  0  0
    7.0827   -1.5296    0.0000 N   0  0  0  0  0  0  0  0  0  0  0  0
    6.9781   -2.5241    0.0000 N   0  0  0  0  0  0  0  0  0  0  0  0
    5.9612   -0.1447    0.0000 C   0  0  0  0  0  0  0  0  0  0  0  0
    5.0102    0.1643    0.0000 C   0  0  0  0  0  0  0  0  0  0  0  0
    4.8023    1.1424    0.0000 C   0  0  0  0  0  0  0  0  0  0  0  0
    5.5454    1.8116    0.0000 C   0  0  0  0  0  0  0  0  0  0  0  0
    6.4965    1.5025    0.0000 C   0  0  0  0  0  0  0  0  0  0  0  0
    6.7044    0.5244    0.0000 C   0  0  0  0  0  0  0  0  0  0  0  0
    5.3375    2.7897    0.0000 O   0  0  0  0  0  0  0  0  0  0  0  0
    6.0806    3.4588    0.0000 C   0  0  0  0  0  0  0  0  0  0  0  0
    7.0317    3.1498    0.0000 F   0  0  0  0  0  0  0  0  0  0  0  0
    5.8727    4.4370    0.0000 F   0  0  0  0  0  0  0  0  0  0  0  0
  1  6  2  0  0  0  0
  1  2  1  0  0  0  0
  2  3  2  0  0  0  0
  3  4  1  0  0  0  0
  4 21  2  0  0  0  0
  4  5  1  0  0  0  0
  5  6  1  0  0  0  0
  5 19  1  0  0  0  0
  6  7  1  0  0  0  0
  7  8  1  0  0  0  0
  7 18  2  0  0  0  0
  8 13  1  0  0  0  0
  8  9  1  0  0  0  0
  9 10  1  0  0  0  0
 10 11  1  0  0  0  0
 11 12  1  0  0  0  0
 11 14  1  0  0  0  0
 12 13  1  0  0  0  0
 14 15  2  0  0  0  0
 14 16  1  0  0  0  0
 14 17  2  0  0  0  0
 19 20  2  0  0  0  0
 19 22  1  0  0  0  0
 20 21  1  0  0  0  0
 22 27  1  0  0  0  0
 22 23  2  0  0  0  0
 23 24  1  0  0  0  0
 24 25  2  0  0  0  0
 25 26  1  0  0  0  0
 25 28  1  0  0  0  0
 26 27  2  0  0  0  0
 28 29  1  0  0  0  0
 29 30  1  0  0  0  0
 29 31  1  0  0  0  0
M  END
> <MW>
452.44

> <EC50>
10

$$$$
