MMV670949
 OpenBabel06241423362D

 29 32  0  0  0  0  0  0  0  0999 V2000
    1.7321   -3.0000    0.0000 C   0  0  0  0  0  0  0  0  0  0  0  0
    1.7321   -4.0000    0.0000 N   0  0  0  0  0  0  0  0  0  0  0  0
    2.5981   -4.5000    0.0000 C   0  0  0  0  0  0  0  0  0  0  0  0
    3.4641   -4.0000    0.0000 C   0  0  0  0  0  0  0  0  0  0  0  0
    3.4641   -3.0000    0.0000 N   0  0  0  0  0  0  0  0  0  0  0  0
    2.5981   -2.5000    0.0000 C   0  0  0  0  0  0  0  0  0  0  0  0
    4.4152   -2.6910    0.0000 C   0  0  0  0  0  0  0  0  0  0  0  0
    5.0029   -3.5000    0.0000 N   0  0  0  0  0  0  0  0  0  0  0  0
    4.4152   -4.3090    0.0000 N   0  0  0  0  0  0  0  0  0  0  0  0
    4.7242   -1.7399    0.0000 C   0  0  0  0  0  0  0  0  0  0  0  0
    4.0550   -0.9968    0.0000 C   0  0  0  0  0  0  0  0  0  0  0  0
    4.3641   -0.0457    0.0000 C   0  0  0  0  0  0  0  0  0  0  0  0
    5.3422    0.1622    0.0000 C   0  0  0  0  0  0  0  0  0  0  0  0
    6.0113   -0.5810    0.0000 C   0  0  0  0  0  0  0  0  0  0  0  0
    5.7023   -1.5320    0.0000 C   0  0  0  0  0  0  0  0  0  0  0  0
    5.6512    1.1132    0.0000 O   0  0  0  0  0  0  0  0  0  0  0  0
    6.6294    1.3212    0.0000 C   0  0  0  0  0  0  0  0  0  0  0  0
    7.2985    0.5780    0.0000 F   0  0  0  0  0  0  0  0  0  0  0  0
    6.9384    2.2722    0.0000 F   0  0  0  0  0  0  0  0  0  0  0  0
    0.8660   -2.5000    0.0000 N   0  0  0  0  0  0  0  0  0  0  0  0
    0.8660   -1.5000    0.0000 C   0  0  0  0  0  0  0  0  0  0  0  0
    0.0000   -1.0000    0.0000 C   0  0  0  0  0  0  0  0  0  0  0  0
   -0.8660   -1.5000    0.0000 C   0  0  0  0  0  0  0  0  0  0  0  0
   -1.7321   -1.0000    0.0000 C   0  0  0  0  0  0  0  0  0  0  0  0
   -1.7321    0.0000    0.0000 C   0  0  0  0  0  0  0  0  0  0  0  0
   -0.8660    0.5000    0.0000 C   0  0  0  0  0  0  0  0  0  0  0  0
    0.0000    0.0000    0.0000 C   0  0  0  0  0  0  0  0  0  0  0  0
   -2.5981    0.5000    0.0000 F   0  0  0  0  0  0  0  0  0  0  0  0
   -2.5981   -1.5000    0.0000 F   0  0  0  0  0  0  0  0  0  0  0  0
  1  6  2  0  0  0  0
  1  2  1  0  0  0  0
  1 20  1  0  0  0  0
  2  3  2  0  0  0  0
  3  4  1  0  0  0  0
  4  9  2  0  0  0  0
  4  5  1  0  0  0  0
  5  6  1  0  0  0  0
  5  7  1  0  0  0  0
  7  8  2  0  0  0  0
  7 10  1  0  0  0  0
  8  9  1  0  0  0  0
 10 15  1  0  0  0  0
 10 11  2  0  0  0  0
 11 12  1  0  0  0  0
 12 13  2  0  0  0  0
 13 14  1  0  0  0  0
 13 16  1  0  0  0  0
 14 15  2  0  0  0  0
 16 17  1  0  0  0  0
 17 18  1  0  0  0  0
 17 19  1  0  0  0  0
 20 21  1  0  0  0  0
 21 22  1  0  0  0  0
 22 27  1  0  0  0  0
 22 23  2  0  0  0  0
 23 24  1  0  0  0  0
 24 25  2  0  0  0  0
 24 29  1  0  0  0  0
 25 26  1  0  0  0  0
 25 28  1  0  0  0  0
 26 27  2  0  0  0  0
M  END
> <MW>
403.34

> <EC50>
10

$$$$
