MMV669353
 OpenBabel06241423362D

 29 33  0  0  0  0  0  0  0  0999 V2000
    1.0000    0.0000    0.0000 N   0  0  0  0  0  0  0  0  0  0  0  0
    0.0000    0.0000    0.0000 C   0  0  0  0  0  0  0  0  0  0  0  0
    0.0000    1.0000    0.0000 C   0  0  0  0  0  0  0  0  0  0  0  0
    1.0000    1.0000    0.0000 C   0  0  0  0  0  0  0  0  0  0  0  0
   -0.7071    1.7071    0.0000 C   0  0  0  0  0  0  0  0  0  0  0  0
   -1.6730    1.4483    0.0000 C   0  0  0  0  0  0  0  0  0  0  0  0
   -2.3801    2.1554    0.0000 C   0  0  0  0  0  0  0  0  0  0  0  0
   -2.1213    3.1213    0.0000 C   0  0  0  0  0  0  0  0  0  0  0  0
   -1.1554    3.3801    0.0000 C   0  0  0  0  0  0  0  0  0  0  0  0
   -0.4483    2.6730    0.0000 C   0  0  0  0  0  0  0  0  0  0  0  0
    1.7071   -0.7071    0.0000 C   0  0  0  0  0  0  0  0  0  0  0  0
    2.6730   -0.4483    0.0000 C   0  0  0  0  0  0  0  0  0  0  0  0
    3.3801   -1.1554    0.0000 N   0  0  0  0  0  0  0  0  0  0  0  0
    3.1213   -2.1213    0.0000 C   0  0  0  0  0  0  0  0  0  0  0  0
    2.1554   -2.3801    0.0000 C   0  0  0  0  0  0  0  0  0  0  0  0
    1.4483   -1.6730    0.0000 N   0  0  0  0  0  0  0  0  0  0  0  0
    0.5573   -2.1270    0.0000 C   0  0  0  0  0  0  0  0  0  0  0  0
    0.7137   -3.1147    0.0000 N   0  0  0  0  0  0  0  0  0  0  0  0
    1.7014   -3.2711    0.0000 N   0  0  0  0  0  0  0  0  0  0  0  0
   -0.3337   -1.6730    0.0000 C   0  0  0  0  0  0  0  0  0  0  0  0
   -1.1724   -2.2177    0.0000 C   0  0  0  0  0  0  0  0  0  0  0  0
   -2.0634   -1.7637    0.0000 C   0  0  0  0  0  0  0  0  0  0  0  0
   -2.1157   -0.7651    0.0000 C   0  0  0  0  0  0  0  0  0  0  0  0
   -1.2771   -0.2204    0.0000 C   0  0  0  0  0  0  0  0  0  0  0  0
   -0.3861   -0.6744    0.0000 C   0  0  0  0  0  0  0  0  0  0  0  0
   -3.0067   -0.3111    0.0000 O   0  0  0  0  0  0  0  0  0  0  0  0
   -3.0591    0.6876    0.0000 C   0  0  0  0  0  0  0  0  0  0  0  0
   -2.2204    1.2322    0.0000 F   0  0  0  0  0  0  0  0  0  0  0  0
   -3.9501    1.1416    0.0000 F   0  0  0  0  0  0  0  0  0  0  0  0
  1  4  1  0  0  0  0
  1  2  1  0  0  0  0
  1 11  1  0  0  0  0
  2  3  1  0  0  0  0
  3  4  1  0  0  0  0
  3  5  1  0  0  0  0
  5 10  1  0  0  0  0
  5  6  2  0  0  0  0
  6  7  1  0  0  0  0
  7  8  2  0  0  0  0
  8  9  1  0  0  0  0
  9 10  2  0  0  0  0
 11 16  1  0  0  0  0
 11 12  2  0  0  0  0
 12 13  1  0  0  0  0
 13 14  2  0  0  0  0
 14 15  1  0  0  0  0
 15 19  2  0  0  0  0
 15 16  1  0  0  0  0
 16 17  1  0  0  0  0
 17 18  2  0  0  0  0
 17 20  1  0  0  0  0
 18 19  1  0  0  0  0
 20 25  1  0  0  0  0
 20 21  2  0  0  0  0
 21 22  1  0  0  0  0
 22 23  2  0  0  0  0
 23 24  1  0  0  0  0
 23 26  1  0  0  0  0
 24 25  2  0  0  0  0
 26 27  1  0  0  0  0
 27 28  1  0  0  0  0
 27 29  1  0  0  0  0
M  END
> <MW>
393.4

> <EC50>
10

$$$$
