MMV669844
 OpenBabel06241423362D

 31 34  0  0  1  0  0  0  0  0999 V2000
    0.8660   -1.5000    0.0000 C   0  0  1  0  0  0  0  0  0  0  0  0
    1.3660   -0.6340    0.0000 H   0  0  0  0  0  0  0  0  0  0  0  0
    1.7321   -2.0000    0.0000 C   0  0  0  0  0  0  0  0  0  0  0  0
    2.5981   -1.5000    0.0000 O   0  0  0  0  0  0  0  0  0  0  0  0
    3.4641   -2.0000    0.0000 C   0  0  0  0  0  0  0  0  0  0  0  0
    3.4641   -3.0000    0.0000 C   0  0  0  0  0  0  0  0  0  0  0  0
    4.3301   -3.5000    0.0000 N   0  0  0  0  0  0  0  0  0  0  0  0
    5.1962   -3.0000    0.0000 C   0  0  0  0  0  0  0  0  0  0  0  0
    5.1962   -2.0000    0.0000 C   0  0  0  0  0  0  0  0  0  0  0  0
    4.3301   -1.5000    0.0000 N   0  0  0  0  0  0  0  0  0  0  0  0
    4.5380   -0.5219    0.0000 C   0  0  0  0  0  0  0  0  0  0  0  0
    5.5326   -0.4173    0.0000 N   0  0  0  0  0  0  0  0  0  0  0  0
    5.9393   -1.3309    0.0000 N   0  0  0  0  0  0  0  0  0  0  0  0
    3.8689    0.2213    0.0000 C   0  0  0  0  0  0  0  0  0  0  0  0
    2.8908    0.0134    0.0000 C   0  0  0  0  0  0  0  0  0  0  0  0
    2.2216    0.7565    0.0000 C   0  0  0  0  0  0  0  0  0  0  0  0
    2.5306    1.7076    0.0000 C   0  0  0  0  0  0  0  0  0  0  0  0
    3.5088    1.9155    0.0000 C   0  0  0  0  0  0  0  0  0  0  0  0
    4.1779    1.1723    0.0000 C   0  0  0  0  0  0  0  0  0  0  0  0
    1.8615    2.4507    0.0000 C   0  0  0  0  0  0  0  0  0  0  0  0
    1.1924    3.1939    0.0000 N   0  0  0  0  0  0  0  0  0  0  0  0
    0.0000   -1.0000    0.0000 C   0  0  0  0  0  0  0  0  0  0  0  0
   -0.8660   -1.5000    0.0000 C   0  0  0  0  0  0  0  0  0  0  0  0
   -1.7321   -1.0000    0.0000 C   0  0  0  0  0  0  0  0  0  0  0  0
   -1.7321    0.0000    0.0000 C   0  0  0  0  0  0  0  0  0  0  0  0
   -0.8660    0.5000    0.0000 C   0  0  0  0  0  0  0  0  0  0  0  0
    0.0000    0.0000    0.0000 C   0  0  0  0  0  0  0  0  0  0  0  0
   -2.5981    0.5000    0.0000 F   0  0  0  0  0  0  0  0  0  0  0  0
   -2.5981   -1.5000    0.0000 F   0  0  0  0  0  0  0  0  0  0  0  0
    0.3660   -2.3660    0.0000 O   0  0  0  0  0  0  0  0  0  0  0  0
   -0.6340   -2.3660    0.0000 C   0  0  0  0  0  0  0  0  0  0  0  0
  1  2  1  1  0  0  0
  1  3  1  0  0  0  0
  1 22  1  0  0  0  0
  1 30  1  0  0  0  0
  3  4  1  0  0  0  0
  4  5  1  0  0  0  0
  5 10  1  0  0  0  0
  5  6  2  0  0  0  0
  6  7  1  0  0  0  0
  7  8  2  0  0  0  0
  8  9  1  0  0  0  0
  9 13  2  0  0  0  0
  9 10  1  0  0  0  0
 10 11  1  0  0  0  0
 11 12  2  0  0  0  0
 11 14  1  0  0  0  0
 12 13  1  0  0  0  0
 14 19  1  0  0  0  0
 14 15  2  0  0  0  0
 15 16  1  0  0  0  0
 16 17  2  0  0  0  0
 17 18  1  0  0  0  0
 17 20  1  0  0  0  0
 18 19  2  0  0  0  0
 20 21  3  0  0  0  0
 22 27  1  0  0  0  0
 22 23  2  0  0  0  0
 23 24  1  0  0  0  0
 24 25  2  0  0  0  0
 24 29  1  0  0  0  0
 25 26  1  0  0  0  0
 25 28  1  0  0  0  0
 26 27  2  0  0  0  0
 30 31  1  0  0  0  0
M  END
> <MW>
407.38

> <EC50>
0.04

$$$$
