MMV669008
 OpenBabel06241423362D

 32 36  0  0  0  0  0  0  0  0999 V2000
    0.0000   -1.0000    0.0000 N   0  0  0  0  0  0  0  0  0  0  0  0
    0.0000    0.0000    0.0000 C   0  0  0  0  0  0  0  0  0  0  0  0
    1.0000    0.0000    0.0000 C   0  0  0  0  0  0  0  0  0  0  0  0
    1.0000   -1.0000    0.0000 C   0  0  0  0  0  0  0  0  0  0  0  0
    1.7071    0.7071    0.0000 O   0  0  0  0  0  0  0  0  0  0  0  0
    2.6730    0.4483    0.0000 C   0  0  0  0  0  0  0  0  0  0  0  0
    3.3801    1.1554    0.0000 C   0  0  0  0  0  0  0  0  0  0  0  0
    4.3461    0.8966    0.0000 C   0  0  0  0  0  0  0  0  0  0  0  0
    4.6049   -0.0694    0.0000 C   0  0  0  0  0  0  0  0  0  0  0  0
    3.8978   -0.7765    0.0000 C   0  0  0  0  0  0  0  0  0  0  0  0
    2.9319   -0.5176    0.0000 C   0  0  0  0  0  0  0  0  0  0  0  0
    5.5708   -0.3282    0.0000 F   0  0  0  0  0  0  0  0  0  0  0  0
    5.0532    1.6037    0.0000 F   0  0  0  0  0  0  0  0  0  0  0  0
   -0.7071   -1.7071    0.0000 C   0  0  0  0  0  0  0  0  0  0  0  0
   -0.4483   -2.6730    0.0000 C   0  0  0  0  0  0  0  0  0  0  0  0
   -1.1554   -3.3801    0.0000 N   0  0  0  0  0  0  0  0  0  0  0  0
   -2.1213   -3.1213    0.0000 C   0  0  0  0  0  0  0  0  0  0  0  0
   -2.3801   -2.1554    0.0000 C   0  0  0  0  0  0  0  0  0  0  0  0
   -1.6730   -1.4483    0.0000 N   0  0  0  0  0  0  0  0  0  0  0  0
   -2.1270   -0.5573    0.0000 C   0  0  0  0  0  0  0  0  0  0  0  0
   -3.1147   -0.7137    0.0000 N   0  0  0  0  0  0  0  0  0  0  0  0
   -3.2711   -1.7014    0.0000 N   0  0  0  0  0  0  0  0  0  0  0  0
   -1.6730    0.3337    0.0000 C   0  0  0  0  0  0  0  0  0  0  0  0
   -2.2177    1.1724    0.0000 C   0  0  0  0  0  0  0  0  0  0  0  0
   -1.7637    2.0634    0.0000 C   0  0  0  0  0  0  0  0  0  0  0  0
   -0.7651    2.1157    0.0000 C   0  0  0  0  0  0  0  0  0  0  0  0
   -0.2204    1.2771    0.0000 C   0  0  0  0  0  0  0  0  0  0  0  0
   -0.6744    0.3861    0.0000 C   0  0  0  0  0  0  0  0  0  0  0  0
   -0.3111    3.0067    0.0000 O   0  0  0  0  0  0  0  0  0  0  0  0
    0.6876    3.0591    0.0000 C   0  0  0  0  0  0  0  0  0  0  0  0
    1.2322    2.2204    0.0000 F   0  0  0  0  0  0  0  0  0  0  0  0
    1.1416    3.9501    0.0000 F   0  0  0  0  0  0  0  0  0  0  0  0
  1  4  1  0  0  0  0
  1  2  1  0  0  0  0
  1 14  1  0  0  0  0
  2  3  1  0  0  0  0
  3  4  1  0  0  0  0
  3  5  1  0  0  0  0
  5  6  1  0  0  0  0
  6 11  1  0  0  0  0
  6  7  2  0  0  0  0
  7  8  1  0  0  0  0
  8  9  2  0  0  0  0
  8 13  1  0  0  0  0
  9 10  1  0  0  0  0
  9 12  1  0  0  0  0
 10 11  2  0  0  0  0
 14 19  1  0  0  0  0
 14 15  2  0  0  0  0
 15 16  1  0  0  0  0
 16 17  2  0  0  0  0
 17 18  1  0  0  0  0
 18 22  2  0  0  0  0
 18 19  1  0  0  0  0
 19 20  1  0  0  0  0
 20 21  2  0  0  0  0
 20 23  1  0  0  0  0
 21 22  1  0  0  0  0
 23 28  1  0  0  0  0
 23 24  2  0  0  0  0
 24 25  1  0  0  0  0
 25 26  2  0  0  0  0
 26 27  1  0  0  0  0
 26 29  1  0  0  0  0
 27 28  2  0  0  0  0
 29 30  1  0  0  0  0
 30 31  1  0  0  0  0
 30 32  1  0  0  0  0
M  END
> <MW>
445.38

> <EC50>
4.96

$$$$
