MMV669028
 OpenBabel06241423362D

 29 33  0  0  0  0  0  0  0  0999 V2000
    2.7842    3.8563    0.0000 C   0  0  0  0  0  0  0  0  0  0  0  0
    2.7842    4.8563    0.0000 N   0  0  0  0  0  0  0  0  0  0  0  0
    1.9182    5.3563    0.0000 C   0  0  0  0  0  0  0  0  0  0  0  0
    1.0522    4.8563    0.0000 C   0  0  0  0  0  0  0  0  0  0  0  0
    1.0522    3.8563    0.0000 N   0  0  0  0  0  0  0  0  0  0  0  0
    1.9182    3.3563    0.0000 C   0  0  0  0  0  0  0  0  0  0  0  0
    1.9182    2.3563    0.0000 O   0  0  0  0  0  0  0  0  0  0  0  0
    2.7842    1.8563    0.0000 C   0  0  0  0  0  0  0  0  0  0  0  0
    2.7842    0.8563    0.0000 C   0  0  0  0  0  0  0  0  0  0  0  0
    3.6502    0.3563    0.0000 C   0  0  0  0  0  0  0  0  0  0  0  0
    4.5163    0.8563    0.0000 C   0  0  0  0  0  0  0  0  0  0  0  0
    5.3823    0.3563    0.0000 C   0  0  0  0  0  0  0  0  0  0  0  0
    5.3823   -0.6437    0.0000 C   0  0  0  0  0  0  0  0  0  0  0  0
    4.5163   -1.1437    0.0000 C   0  0  0  0  0  0  0  0  0  0  0  0
    3.6502   -0.6437    0.0000 C   0  0  0  0  0  0  0  0  0  0  0  0
    6.2483   -1.1437    0.0000 F   0  0  0  0  0  0  0  0  0  0  0  0
    6.2483    0.8563    0.0000 F   0  0  0  0  0  0  0  0  0  0  0  0
    0.1011    3.5472    0.0000 C   0  0  0  0  0  0  0  0  0  0  0  0
   -0.4867    4.3563    0.0000 N   0  0  0  0  0  0  0  0  0  0  0  0
    0.1011    5.1653    0.0000 N   0  0  0  0  0  0  0  0  0  0  0  0
   -0.2079    2.5962    0.0000 N   0  0  0  0  0  0  0  0  0  0  0  0
    0.3799    1.7872    0.0000 C   0  0  0  0  0  0  0  0  0  0  0  0
   -0.2079    0.9781    0.0000 C   0  0  0  0  0  0  0  0  0  0  0  0
   -1.1590    1.2872    0.0000 C   0  0  0  0  0  0  0  0  0  0  0  0
   -1.1590    2.2872    0.0000 C   0  0  0  0  0  0  0  0  0  0  0  0
   -1.9021    0.6180    0.0000 C   0  0  0  0  0  0  0  0  0  0  0  0
   -1.6942   -0.3601    0.0000 C   0  0  0  0  0  0  0  0  0  0  0  0
   -0.7431   -0.6691    0.0000 C   0  0  0  0  0  0  0  0  0  0  0  0
    0.0000    0.0000    0.0000 C   0  0  0  0  0  0  0  0  0  0  0  0
  1  6  2  0  0  0  0
  1  2  1  0  0  0  0
  2  3  2  0  0  0  0
  3  4  1  0  0  0  0
  4 20  2  0  0  0  0
  4  5  1  0  0  0  0
  5  6  1  0  0  0  0
  5 18  1  0  0  0  0
  6  7  1  0  0  0  0
  7  8  1  0  0  0  0
  8  9  1  0  0  0  0
  9 10  1  0  0  0  0
 10 15  1  0  0  0  0
 10 11  2  0  0  0  0
 11 12  1  0  0  0  0
 12 13  2  0  0  0  0
 12 17  1  0  0  0  0
 13 14  1  0  0  0  0
 13 16  1  0  0  0  0
 14 15  2  0  0  0  0
 18 19  2  0  0  0  0
 18 21  1  0  0  0  0
 19 20  1  0  0  0  0
 21 25  1  0  0  0  0
 21 22  1  0  0  0  0
 22 23  1  0  0  0  0
 23 29  1  0  0  0  0
 23 24  2  0  0  0  0
 24 25  1  0  0  0  0
 24 26  1  0  0  0  0
 26 27  2  0  0  0  0
 27 28  1  0  0  0  0
 28 29  2  0  0  0  0
M  END
> <MW>
393.4

> <EC50>
0.47

$$$$
