MMV669104
 OpenBabel06241423362D

 32 36  0  0  1  0  0  0  0  0999 V2000
    2.6230   -3.3223    0.0000 C   0  0  0  0  0  0  0  0  0  0  0  0
    3.5741   -3.0133    0.0000 N   0  0  0  0  0  0  0  0  0  0  0  0
    3.7820   -2.0352    0.0000 C   0  0  0  0  0  0  0  0  0  0  0  0
    3.0388   -1.3660    0.0000 C   0  0  0  0  0  0  0  0  0  0  0  0
    2.0878   -1.6750    0.0000 N   0  0  0  0  0  0  0  0  0  0  0  0
    1.8799   -2.6532    0.0000 C   0  0  0  0  0  0  0  0  0  0  0  0
    0.9288   -2.9622    0.0000 C   0  0  0  0  0  0  0  0  0  0  0  0
    0.7209   -3.9404    0.0000 N   0  0  0  0  0  0  0  0  0  0  0  0
   -0.1926   -4.3471    0.0000 C   0  0  3  0  0  0  0  0  0  0  0  0
   -0.0881   -5.3416    0.0000 C   0  0  0  0  0  0  0  0  0  0  0  0
    0.8900   -5.5495    0.0000 C   0  0  0  0  0  0  0  0  0  0  0  0
    1.3900   -4.6835    0.0000 C   0  0  0  0  0  0  0  0  0  0  0  0
   -1.0587   -3.8471    0.0000 C   0  0  0  0  0  0  0  0  0  0  0  0
   -1.0587   -2.8471    0.0000 C   0  0  0  0  0  0  0  0  0  0  0  0
   -1.9247   -2.3471    0.0000 C   0  0  0  0  0  0  0  0  0  0  0  0
   -2.7907   -2.8471    0.0000 C   0  0  0  0  0  0  0  0  0  0  0  0
   -2.7907   -3.8471    0.0000 C   0  0  0  0  0  0  0  0  0  0  0  0
   -1.9247   -4.3471    0.0000 C   0  0  0  0  0  0  0  0  0  0  0  0
    0.1857   -2.2931    0.0000 O   0  0  0  0  0  0  0  0  0  0  0  0
    1.5000   -0.8660    0.0000 C   0  0  0  0  0  0  0  0  0  0  0  0
    2.0878   -0.0570    0.0000 N   0  0  0  0  0  0  0  0  0  0  0  0
    3.0388   -0.3660    0.0000 N   0  0  0  0  0  0  0  0  0  0  0  0
    0.5000   -0.8660    0.0000 C   0  0  0  0  0  0  0  0  0  0  0  0
    0.0000   -1.7321    0.0000 C   0  0  0  0  0  0  0  0  0  0  0  0
   -1.0000   -1.7321    0.0000 C   0  0  0  0  0  0  0  0  0  0  0  0
   -1.5000   -0.8660    0.0000 C   0  0  0  0  0  0  0  0  0  0  0  0
   -1.0000    0.0000    0.0000 C   0  0  0  0  0  0  0  0  0  0  0  0
    0.0000    0.0000    0.0000 C   0  0  0  0  0  0  0  0  0  0  0  0
   -2.5000   -0.8660    0.0000 O   0  0  0  0  0  0  0  0  0  0  0  0
   -3.0000    0.0000    0.0000 C   0  0  0  0  0  0  0  0  0  0  0  0
   -2.5000    0.8660    0.0000 F   0  0  0  0  0  0  0  0  0  0  0  0
   -4.0000    0.0000    0.0000 F   0  0  0  0  0  0  0  0  0  0  0  0
  1  6  2  0  0  0  0
  1  2  1  0  0  0  0
  2  3  2  0  0  0  0
  3  4  1  0  0  0  0
  4 22  2  0  0  0  0
  4  5  1  0  0  0  0
  5  6  1  0  0  0  0
  5 20  1  0  0  0  0
  6  7  1  0  0  0  0
  7  8  1  0  0  0  0
  7 19  2  0  0  0  0
  8 12  1  0  0  0  0
  8  9  1  0  0  0  0
  9 10  1  0  0  0  0
  9 13  1  0  0  0  0
 10 11  1  0  0  0  0
 11 12  1  0  0  0  0
 13 18  1  0  0  0  0
 13 14  2  0  0  0  0
 14 15  1  0  0  0  0
 15 16  2  0  0  0  0
 16 17  1  0  0  0  0
 17 18  2  0  0  0  0
 20 21  2  0  0  0  0
 20 23  1  0  0  0  0
 21 22  1  0  0  0  0
 23 28  1  0  0  0  0
 23 24  2  0  0  0  0
 24 25  1  0  0  0  0
 25 26  2  0  0  0  0
 26 27  1  0  0  0  0
 26 29  1  0  0  0  0
 27 28  2  0  0  0  0
 29 30  1  0  0  0  0
 30 31  1  0  0  0  0
 30 32  1  0  0  0  0
M  END
> <MW>
435.43

> <EC50>
3.56

$$$$
