MMV671679
 OpenBabel06241423362D

 29 32  0  0  0  0  0  0  0  0999 V2000
    5.1694   -2.3283    0.0000 C   0  0  0  0  0  0  0  0  0  0  0  0
    6.1475   -2.1204    0.0000 N   0  0  0  0  0  0  0  0  0  0  0  0
    6.4565   -1.1694    0.0000 C   0  0  0  0  0  0  0  0  0  0  0  0
    5.7874   -0.4262    0.0000 C   0  0  0  0  0  0  0  0  0  0  0  0
    4.8092   -0.6341    0.0000 N   0  0  0  0  0  0  0  0  0  0  0  0
    4.5002   -1.5852    0.0000 C   0  0  0  0  0  0  0  0  0  0  0  0
    3.5221   -1.7931    0.0000 O   0  0  0  0  0  0  0  0  0  0  0  0
    3.2131   -2.7442    0.0000 C   0  0  0  0  0  0  0  0  0  0  0  0
    2.2349   -2.9521    0.0000 C   0  0  0  0  0  0  0  0  0  0  0  0
    1.4918   -3.6212    0.0000 F   0  0  0  0  0  0  0  0  0  0  0  0
    2.4428   -3.9302    0.0000 F   0  0  0  0  0  0  0  0  0  0  0  0
    1.5658   -2.2089    0.0000 F   0  0  0  0  0  0  0  0  0  0  0  0
    4.3092    0.2319    0.0000 C   0  0  0  0  0  0  0  0  0  0  0  0
    4.9784    0.9750    0.0000 N   0  0  0  0  0  0  0  0  0  0  0  0
    5.8919    0.5683    0.0000 N   0  0  0  0  0  0  0  0  0  0  0  0
    3.3147    0.3364    0.0000 C   0  0  0  0  0  0  0  0  0  0  0  0
    2.6456   -0.4067    0.0000 C   0  0  0  0  0  0  0  0  0  0  0  0
    1.7321    0.0000    0.0000 N   0  0  0  0  0  0  0  0  0  0  0  0
    1.8366    0.9945    0.0000 N   0  0  0  0  0  0  0  0  0  0  0  0
    2.8147    1.2024    0.0000 C   0  0  0  0  0  0  0  0  0  0  0  0
    3.2215    2.1160    0.0000 C   0  0  0  0  0  0  0  0  0  0  0  0
    0.8660   -0.5000    0.0000 C   0  0  0  0  0  0  0  0  0  0  0  0
    0.8660   -1.5000    0.0000 C   0  0  0  0  0  0  0  0  0  0  0  0
    0.0000   -2.0000    0.0000 C   0  0  0  0  0  0  0  0  0  0  0  0
   -0.8660   -1.5000    0.0000 C   0  0  0  0  0  0  0  0  0  0  0  0
   -0.8660   -0.5000    0.0000 C   0  0  0  0  0  0  0  0  0  0  0  0
    0.0000    0.0000    0.0000 C   0  0  0  0  0  0  0  0  0  0  0  0
   -1.7321   -2.0000    0.0000 F   0  0  0  0  0  0  0  0  0  0  0  0
    2.8535   -1.3849    0.0000 C   0  0  0  0  0  0  0  0  0  0  0  0
  1  6  2  0  0  0  0
  1  2  1  0  0  0  0
  2  3  2  0  0  0  0
  3  4  1  0  0  0  0
  4 15  2  0  0  0  0
  4  5  1  0  0  0  0
  5  6  1  0  0  0  0
  5 13  1  0  0  0  0
  6  7  1  0  0  0  0
  7  8  1  0  0  0  0
  8  9  1  0  0  0  0
  9 10  1  0  0  0  0
  9 11  1  0  0  0  0
  9 12  1  0  0  0  0
 13 14  2  0  0  0  0
 13 16  1  0  0  0  0
 14 15  1  0  0  0  0
 16 20  1  0  0  0  0
 16 17  2  0  0  0  0
 17 18  1  0  0  0  0
 17 29  1  0  0  0  0
 18 19  1  0  0  0  0
 18 22  1  0  0  0  0
 19 20  2  0  0  0  0
 20 21  1  0  0  0  0
 22 27  1  0  0  0  0
 22 23  2  0  0  0  0
 23 24  1  0  0  0  0
 24 25  2  0  0  0  0
 25 26  1  0  0  0  0
 25 28  1  0  0  0  0
 26 27  2  0  0  0  0
M  END
> <MW>
406.34

> <EC50>
10

$$$$
