MMV671651
 OpenBabel06241423362D

 32 35  0  0  1  0  0  0  0  0999 V2000
    0.7138    4.1723    0.0000 C   0  0  0  0  0  0  0  0  0  0  0  0
   -0.1522    4.6723    0.0000 N   0  0  0  0  0  0  0  0  0  0  0  0
   -1.0182    4.1723    0.0000 C   0  0  0  0  0  0  0  0  0  0  0  0
   -1.0182    3.1723    0.0000 C   0  0  0  0  0  0  0  0  0  0  0  0
   -0.1522    2.6723    0.0000 N   0  0  0  0  0  0  0  0  0  0  0  0
    0.7138    3.1723    0.0000 C   0  0  0  0  0  0  0  0  0  0  0  0
    1.5798    2.6723    0.0000 O   0  0  0  0  0  0  0  0  0  0  0  0
    2.4459    3.1723    0.0000 C   0  0  0  0  0  0  0  0  0  0  0  0
    3.3119    2.6723    0.0000 C   0  0  1  0  0  0  0  0  0  0  0  0
    3.8119    1.8063    0.0000 H   0  0  0  0  0  0  0  0  0  0  0  0
    4.1779    3.1723    0.0000 C   0  0  0  0  0  0  0  0  0  0  0  0
    5.0440    2.6723    0.0000 C   0  0  0  0  0  0  0  0  0  0  0  0
    5.9100    3.1723    0.0000 C   0  0  0  0  0  0  0  0  0  0  0  0
    5.9100    4.1723    0.0000 C   0  0  0  0  0  0  0  0  0  0  0  0
    5.0440    4.6723    0.0000 C   0  0  0  0  0  0  0  0  0  0  0  0
    4.1779    4.1723    0.0000 C   0  0  0  0  0  0  0  0  0  0  0  0
    6.7760    4.6723    0.0000 F   0  0  0  0  0  0  0  0  0  0  0  0
    6.7760    2.6723    0.0000 F   0  0  0  0  0  0  0  0  0  0  0  0
    2.8119    1.8063    0.0000 N   0  0  0  0  0  0  0  0  0  0  0  0
   -0.3601    1.6942    0.0000 C   0  0  0  0  0  0  0  0  0  0  0  0
   -1.3546    1.5897    0.0000 N   0  0  0  0  0  0  0  0  0  0  0  0
   -1.7614    2.5032    0.0000 N   0  0  0  0  0  0  0  0  0  0  0  0
    0.3090    0.9511    0.0000 C   0  0  0  0  0  0  0  0  0  0  0  0
    1.2872    1.1590    0.0000 C   0  0  0  0  0  0  0  0  0  0  0  0
    1.9563    0.4158    0.0000 C   0  0  0  0  0  0  0  0  0  0  0  0
    1.6473   -0.5352    0.0000 C   0  0  0  0  0  0  0  0  0  0  0  0
    0.6691   -0.7431    0.0000 C   0  0  0  0  0  0  0  0  0  0  0  0
    0.0000    0.0000    0.0000 C   0  0  0  0  0  0  0  0  0  0  0  0
    2.3164   -1.2784    0.0000 O   0  0  0  0  0  0  0  0  0  0  0  0
    3.2946   -1.0705    0.0000 C   0  0  0  0  0  0  0  0  0  0  0  0
    3.9637   -1.8136    0.0000 F   0  0  0  0  0  0  0  0  0  0  0  0
    3.6036   -0.1194    0.0000 F   0  0  0  0  0  0  0  0  0  0  0  0
  1  6  2  0  0  0  0
  1  2  1  0  0  0  0
  2  3  2  0  0  0  0
  3  4  1  0  0  0  0
  4 22  2  0  0  0  0
  4  5  1  0  0  0  0
  5  6  1  0  0  0  0
  5 20  1  0  0  0  0
  6  7  1  0  0  0  0
  7  8  1  0  0  0  0
  8  9  1  0  0  0  0
  9 10  1  6  0  0  0
  9 11  1  0  0  0  0
  9 19  1  0  0  0  0
 11 16  1  0  0  0  0
 11 12  2  0  0  0  0
 12 13  1  0  0  0  0
 13 14  2  0  0  0  0
 13 18  1  0  0  0  0
 14 15  1  0  0  0  0
 14 17  1  0  0  0  0
 15 16  2  0  0  0  0
 20 21  2  0  0  0  0
 20 23  1  0  0  0  0
 21 22  1  0  0  0  0
 23 28  1  0  0  0  0
 23 24  2  0  0  0  0
 24 25  1  0  0  0  0
 25 26  2  0  0  0  0
 26 27  1  0  0  0  0
 26 29  1  0  0  0  0
 27 28  2  0  0  0  0
 29 30  1  0  0  0  0
 30 31  1  0  0  0  0
 30 32  1  0  0  0  0
M  END
> <MW>
433.36

> <EC50>
0.2785

$$$$
