MMV671652
 OpenBabel06241423362D

 32 35  0  0  1  0  0  0  0  0999 V2000
   -3.9703   -1.4680    0.0000 C   0  0  0  0  0  0  0  0  0  0  0  0
   -3.9703   -2.4680    0.0000 N   0  0  0  0  0  0  0  0  0  0  0  0
   -3.1042   -2.9680    0.0000 C   0  0  0  0  0  0  0  0  0  0  0  0
   -2.2382   -2.4680    0.0000 C   0  0  0  0  0  0  0  0  0  0  0  0
   -2.2382   -1.4680    0.0000 N   0  0  0  0  0  0  0  0  0  0  0  0
   -3.1042   -0.9680    0.0000 C   0  0  0  0  0  0  0  0  0  0  0  0
   -3.1042    0.0320    0.0000 N   0  0  0  0  0  0  0  0  0  0  0  0
   -3.9703    0.5320    0.0000 C   0  0  2  0  0  0  0  0  0  0  0  0
   -3.4703    1.3980    0.0000 H   0  0  0  0  0  0  0  0  0  0  0  0
   -4.8363    1.0320    0.0000 C   0  0  0  0  0  0  0  0  0  0  0  0
   -5.7023    0.5320    0.0000 C   0  0  0  0  0  0  0  0  0  0  0  0
   -6.5683    1.0320    0.0000 C   0  0  0  0  0  0  0  0  0  0  0  0
   -6.5683    2.0320    0.0000 C   0  0  0  0  0  0  0  0  0  0  0  0
   -5.7023    2.5320    0.0000 C   0  0  0  0  0  0  0  0  0  0  0  0
   -4.8363    2.0320    0.0000 C   0  0  0  0  0  0  0  0  0  0  0  0
   -7.4344    2.5320    0.0000 F   0  0  0  0  0  0  0  0  0  0  0  0
   -7.4344    0.5320    0.0000 F   0  0  0  0  0  0  0  0  0  0  0  0
   -4.4703   -0.3340    0.0000 C   0  0  0  0  0  0  0  0  0  0  0  0
   -5.4703   -0.3340    0.0000 O   0  0  0  0  0  0  0  0  0  0  0  0
   -1.2872   -1.1590    0.0000 C   0  0  0  0  0  0  0  0  0  0  0  0
   -0.6994   -1.9680    0.0000 N   0  0  0  0  0  0  0  0  0  0  0  0
   -1.2872   -2.7770    0.0000 N   0  0  0  0  0  0  0  0  0  0  0  0
   -0.9781   -0.2079    0.0000 C   0  0  0  0  0  0  0  0  0  0  0  0
   -1.6473    0.5352    0.0000 C   0  0  0  0  0  0  0  0  0  0  0  0
   -1.3383    1.4863    0.0000 C   0  0  0  0  0  0  0  0  0  0  0  0
   -0.3601    1.6942    0.0000 C   0  0  0  0  0  0  0  0  0  0  0  0
    0.3090    0.9511    0.0000 C   0  0  0  0  0  0  0  0  0  0  0  0
    0.0000    0.0000    0.0000 C   0  0  0  0  0  0  0  0  0  0  0  0
   -0.0511    2.6453    0.0000 O   0  0  0  0  0  0  0  0  0  0  0  0
    0.9271    2.8532    0.0000 C   0  0  0  0  0  0  0  0  0  0  0  0
    1.5962    2.1100    0.0000 F   0  0  0  0  0  0  0  0  0  0  0  0
    1.2361    3.8042    0.0000 F   0  0  0  0  0  0  0  0  0  0  0  0
  1  6  2  0  0  0  0
  1  2  1  0  0  0  0
  2  3  2  0  0  0  0
  3  4  1  0  0  0  0
  4 22  2  0  0  0  0
  4  5  1  0  0  0  0
  5  6  1  0  0  0  0
  5 20  1  0  0  0  0
  6  7  1  0  0  0  0
  7  8  1  0  0  0  0
  8  9  1  6  0  0  0
  8 10  1  0  0  0  0
  8 18  1  0  0  0  0
 10 15  1  0  0  0  0
 10 11  2  0  0  0  0
 11 12  1  0  0  0  0
 12 13  2  0  0  0  0
 12 17  1  0  0  0  0
 13 14  1  0  0  0  0
 13 16  1  0  0  0  0
 14 15  2  0  0  0  0
 18 19  1  0  0  0  0
 20 21  2  0  0  0  0
 20 23  1  0  0  0  0
 21 22  1  0  0  0  0
 23 28  1  0  0  0  0
 23 24  2  0  0  0  0
 24 25  1  0  0  0  0
 25 26  2  0  0  0  0
 26 27  1  0  0  0  0
 26 29  1  0  0  0  0
 27 28  2  0  0  0  0
 29 30  1  0  0  0  0
 30 31  1  0  0  0  0
 30 32  1  0  0  0  0
M  END
> <MW>
433.36

> <EC50>
0.5697

$$$$
