MMV670934
 OpenBabel06241423362D

 28 31  0  0  0  0  0  0  0  0999 V2000
    3.9703    1.4680    0.0000 C    0  0  0  0  0  0  0  0  0  0  0  0
    3.9703    2.4680    0.0000 N    0  0  0  0  0  0  0  0  0  0  0  0
    3.1042    2.9680    0.0000 C    0  0  0  0  0  0  0  0  0  0  0  0
    2.2382    2.4680    0.0000 C    0  0  0  0  0  0  0  0  0  0  0  0
    2.2382    1.4680    0.0000 N    0  0  0  0  0  0  0  0  0  0  0  0
    3.1042    0.9680    0.0000 C    0  0  0  0  0  0  0  0  0  0  0  0
    3.1042   -0.0320    0.0000 N    0  0  0  0  0  0  0  0  0  0  0  0
    3.9703   -0.5320    0.0000 C    0  0  0  0  0  0  0  0  0  0  0  0
    4.8363   -0.0320    0.0000 C    0  0  0  0  0  0  0  0  0  0  0  0
    5.7023   -0.5320    0.0000 C    0  0  0  0  0  0  0  0  0  0  0  0
    5.7023   -1.5320    0.0000 C    0  0  0  0  0  0  0  0  0  0  0  0
    4.8363   -2.0320    0.0000 C    0  0  0  0  0  0  0  0  0  0  0  0
    3.9703   -1.5320    0.0000 C    0  0  0  0  0  0  0  0  0  0  0  0
    4.8363   -3.0320    0.0000 Cl   0  0  0  0  0  0  0  0  0  0  0  0
    6.5683   -2.0320    0.0000 Cl   0  0  0  0  0  0  0  0  0  0  0  0
    1.2872    1.1590    0.0000 C    0  0  0  0  0  0  0  0  0  0  0  0
    0.6994    1.9680    0.0000 N    0  0  0  0  0  0  0  0  0  0  0  0
    1.2872    2.7770    0.0000 N    0  0  0  0  0  0  0  0  0  0  0  0
    0.9781    0.2079    0.0000 C    0  0  0  0  0  0  0  0  0  0  0  0
    1.6473   -0.5352    0.0000 C    0  0  0  0  0  0  0  0  0  0  0  0
    1.3383   -1.4863    0.0000 C    0  0  0  0  0  0  0  0  0  0  0  0
    0.3601   -1.6942    0.0000 C    0  0  0  0  0  0  0  0  0  0  0  0
   -0.3090   -0.9511    0.0000 C    0  0  0  0  0  0  0  0  0  0  0  0
    0.0000    0.0000    0.0000 C    0  0  0  0  0  0  0  0  0  0  0  0
    0.0511   -2.6453    0.0000 O    0  0  0  0  0  0  0  0  0  0  0  0
   -0.9271   -2.8532    0.0000 C    0  0  0  0  0  0  0  0  0  0  0  0
   -1.5962   -2.1100    0.0000 F    0  0  0  0  0  0  0  0  0  0  0  0
   -1.2361   -3.8042    0.0000 F    0  0  0  0  0  0  0  0  0  0  0  0
  1  6  2  0  0  0  0
  1  2  1  0  0  0  0
  2  3  2  0  0  0  0
  3  4  1  0  0  0  0
  4 18  2  0  0  0  0
  4  5  1  0  0  0  0
  5  6  1  0  0  0  0
  5 16  1  0  0  0  0
  6  7  1  0  0  0  0
  7  8  1  0  0  0  0
  8 13  1  0  0  0  0
  8  9  2  0  0  0  0
  9 10  1  0  0  0  0
 10 11  2  0  0  0  0
 11 12  1  0  0  0  0
 11 15  1  0  0  0  0
 12 13  2  0  0  0  0
 12 14  1  0  0  0  0
 16 17  2  0  0  0  0
 16 19  1  0  0  0  0
 17 18  1  0  0  0  0
 19 24  1  0  0  0  0
 19 20  2  0  0  0  0
 20 21  1  0  0  0  0
 21 22  2  0  0  0  0
 22 23  1  0  0  0  0
 22 25  1  0  0  0  0
 23 24  2  0  0  0  0
 25 26  1  0  0  0  0
 26 27  1  0  0  0  0
 26 28  1  0  0  0  0
M  END
> <MW>
422.22

> <EC50>
9.635

$$$$
