MMV668962
 OpenBabel06241423362D

 23 25  0  0  0  0  0  0  0  0999 V2000
    3.9328   -1.5657    0.0000 C   0  0  0  0  0  0  0  0  0  0  0  0
    4.6019   -0.8226    0.0000 N   0  0  0  0  0  0  0  0  0  0  0  0
    4.2929    0.1285    0.0000 C   0  0  0  0  0  0  0  0  0  0  0  0
    3.3147    0.3364    0.0000 C   0  0  0  0  0  0  0  0  0  0  0  0
    2.6456   -0.4067    0.0000 N   0  0  0  0  0  0  0  0  0  0  0  0
    2.9546   -1.3578    0.0000 C   0  0  0  0  0  0  0  0  0  0  0  0
    1.7321    0.0000    0.0000 C   0  0  0  0  0  0  0  0  0  0  0  0
    1.8366    0.9945    0.0000 N   0  0  0  0  0  0  0  0  0  0  0  0
    2.8147    1.2024    0.0000 N   0  0  0  0  0  0  0  0  0  0  0  0
    0.8660   -0.5000    0.0000 C   0  0  0  0  0  0  0  0  0  0  0  0
    0.8660   -1.5000    0.0000 C   0  0  0  0  0  0  0  0  0  0  0  0
    0.0000   -2.0000    0.0000 C   0  0  0  0  0  0  0  0  0  0  0  0
   -0.8660   -1.5000    0.0000 C   0  0  0  0  0  0  0  0  0  0  0  0
   -0.8660   -0.5000    0.0000 C   0  0  0  0  0  0  0  0  0  0  0  0
    0.0000    0.0000    0.0000 C   0  0  0  0  0  0  0  0  0  0  0  0
   -1.7321   -2.0000    0.0000 O   0  0  0  0  0  0  0  0  0  0  0  0
   -2.5981   -1.5000    0.0000 C   0  0  0  0  0  0  0  0  0  0  0  0
   -2.5981   -0.5000    0.0000 F   0  0  0  0  0  0  0  0  0  0  0  0
   -3.4641   -2.0000    0.0000 F   0  0  0  0  0  0  0  0  0  0  0  0
    5.5800   -1.0305    0.0000 C   0  0  0  0  0  0  0  0  0  0  0  0
    5.8891   -1.9815    0.0000 C   0  0  0  0  0  0  0  0  0  0  0  0
    5.2199   -2.7247    0.0000 N   0  0  0  0  0  0  0  0  0  0  0  0
    6.2492   -0.2873    0.0000 O   0  0  0  0  0  0  0  0  0  0  0  0
  1  6  1  0  0  0  0
  1  2  1  0  0  0  0
  2  3  1  0  0  0  0
  2 20  1  0  0  0  0
  3  4  1  0  0  0  0
  4  9  2  0  0  0  0
  4  5  1  0  0  0  0
  5  6  1  0  0  0  0
  5  7  1  0  0  0  0
  7  8  2  0  0  0  0
  7 10  1  0  0  0  0
  8  9  1  0  0  0  0
 10 15  1  0  0  0  0
 10 11  2  0  0  0  0
 11 12  1  0  0  0  0
 12 13  2  0  0  0  0
 13 14  1  0  0  0  0
 13 16  1  0  0  0  0
 14 15  2  0  0  0  0
 16 17  1  0  0  0  0
 17 18  1  0  0  0  0
 17 19  1  0  0  0  0
 20 21  1  0  0  0  0
 20 23  2  0  0  0  0
 21 22  1  0  0  0  0
M  END
> <MW>
323.3

> <EC50>
10

$$$$
