MMV672626
 OpenBabel06241423362D

 36 40  0  0  1  0  0  0  0  0999 V2000
    0.8056    1.3953    0.0000 C   0  0  0  0  0  0  0  0  0  0  0  0
    0.8056    2.3256    0.0000 C   0  0  0  0  0  0  0  0  0  0  0  0
    1.6112    1.8605    0.0000 C   0  0  0  0  0  0  0  0  0  0  0  0
   -2.4168   -0.4651    0.0000 C   0  0  3  0  0  0  0  0  0  0  0  0
   -3.2224    0.0000    0.0000 O   0  0  0  0  0  0  0  0  0  0  0  0
   -4.0280   -0.4651    0.0000 C   0  0  0  0  0  0  0  0  0  0  0  0
   -4.0280   -1.3953    0.0000 C   0  0  0  0  0  0  0  0  0  0  0  0
   -4.8336   -1.8605    0.0000 N   0  0  0  0  0  0  0  0  0  0  0  0
   -5.6392   -1.3953    0.0000 C   0  0  0  0  0  0  0  0  0  0  0  0
   -5.6392   -0.4651    0.0000 C   0  0  0  0  0  0  0  0  0  0  0  0
   -4.8336    0.0000    0.0000 N   0  0  0  0  0  0  0  0  0  0  0  0
   -5.0270    0.9099    0.0000 C   0  0  0  0  0  0  0  0  0  0  0  0
   -5.9522    1.0071    0.0000 N   0  0  0  0  0  0  0  0  0  0  0  0
   -6.3305    0.1573    0.0000 N   0  0  0  0  0  0  0  0  0  0  0  0
   -4.4046    1.6012    0.0000 C   0  0  0  0  0  0  0  0  0  0  0  0
   -4.6920    2.4859    0.0000 C   0  0  0  0  0  0  0  0  0  0  0  0
   -4.0696    3.1772    0.0000 C   0  0  0  0  0  0  0  0  0  0  0  0
   -3.1597    2.9838    0.0000 C   0  0  0  0  0  0  0  0  0  0  0  0
   -2.8722    2.0991    0.0000 C   0  0  0  0  0  0  0  0  0  0  0  0
   -3.4947    1.4078    0.0000 C   0  0  0  0  0  0  0  0  0  0  0  0
   -2.5372    3.6751    0.0000 O   0  0  0  0  0  0  0  0  0  0  0  0
   -1.6273    3.4817    0.0000 C   0  0  0  0  0  0  0  0  0  0  0  0
   -1.3399    2.5970    0.0000 F   0  0  0  0  0  0  0  0  0  0  0  0
   -1.0049    4.1730    0.0000 F   0  0  0  0  0  0  0  0  0  0  0  0
   -2.4168   -1.3953    0.0000 C   0  0  0  0  0  0  0  0  0  0  0  0
   -1.9517   -2.2010    0.0000 F   0  0  0  0  0  0  0  0  0  0  0  0
   -1.4866   -1.3953    0.0000 F   0  0  0  0  0  0  0  0  0  0  0  0
   -3.2224   -1.8605    0.0000 F   0  0  0  0  0  0  0  0  0  0  0  0
    0.8056    0.4651    0.0000 C   0  0  0  0  0  0  0  0  0  0  0  0
    1.6112    0.0000    0.0000 C   0  0  0  0  0  0  0  0  0  0  0  0
    1.6112   -0.9302    0.0000 C   0  0  0  0  0  0  0  0  0  0  0  0
    0.8056   -1.3953    0.0000 C   0  0  0  0  0  0  0  0  0  0  0  0
    0.0000   -0.9302    0.0000 C   0  0  0  0  0  0  0  0  0  0  0  0
    0.0000    0.0000    0.0000 C   0  0  0  0  0  0  0  0  0  0  0  0
   -0.8056   -1.3953    0.0000 F   0  0  0  0  0  0  0  0  0  0  0  0
    0.8056   -2.3256    0.0000 F   0  0  0  0  0  0  0  0  0  0  0  0
  1  3  1  0  0  0  0
  1  2  1  0  0  0  0
  1  4  1  0  0  0  0
  1 29  1  0  0  0  0
  2  3  1  0  0  0  0
  4  5  1  0  0  0  0
  4 25  1  0  0  0  0
  5  6  1  0  0  0  0
  6 11  1  0  0  0  0
  6  7  2  0  0  0  0
  7  8  1  0  0  0  0
  8  9  2  0  0  0  0
  9 10  1  0  0  0  0
 10 14  2  0  0  0  0
 10 11  1  0  0  0  0
 11 12  1  0  0  0  0
 12 13  2  0  0  0  0
 12 15  1  0  0  0  0
 13 14  1  0  0  0  0
 15 20  1  0  0  0  0
 15 16  2  0  0  0  0
 16 17  1  0  0  0  0
 17 18  2  0  0  0  0
 18 19  1  0  0  0  0
 18 21  1  0  0  0  0
 19 20  2  0  0  0  0
 21 22  1  0  0  0  0
 22 23  1  0  0  0  0
 22 24  1  0  0  0  0
 25 26  1  0  0  0  0
 25 27  1  0  0  0  0
 25 28  1  0  0  0  0
 29 34  1  0  0  0  0
 29 30  2  0  0  0  0
 30 31  1  0  0  0  0
 31 32  2  0  0  0  0
 32 33  1  0  0  0  0
 32 36  1  0  0  0  0
 33 34  2  0  0  0  0
 33 35  1  0  0  0  0
M  END
> <MW>
512.38

> <EC50>
10

$$$$
