MMV671926
 OpenBabel06241423362D

 28 31  0  0  0  0  0  0  0  0999 V2000
    0.0000   -2.0000    0.0000 C   0  0  0  0  0  0  0  0  0  0  0  0
    0.0000   -3.0000    0.0000 N   0  0  0  0  0  0  0  0  0  0  0  0
    0.8660   -3.5000    0.0000 C   0  0  0  0  0  0  0  0  0  0  0  0
    1.7321   -3.0000    0.0000 C   0  0  0  0  0  0  0  0  0  0  0  0
    1.7321   -2.0000    0.0000 N   0  0  0  0  0  0  0  0  0  0  0  0
    0.8660   -1.5000    0.0000 C   0  0  0  0  0  0  0  0  0  0  0  0
    2.6831   -1.6910    0.0000 C   0  0  0  0  0  0  0  0  0  0  0  0
    3.2709   -2.5000    0.0000 N   0  0  0  0  0  0  0  0  0  0  0  0
    2.6831   -3.3090    0.0000 N   0  0  0  0  0  0  0  0  0  0  0  0
    2.9921   -0.7399    0.0000 C   0  0  0  0  0  0  0  0  0  0  0  0
    2.3230    0.0032    0.0000 C   0  0  0  0  0  0  0  0  0  0  0  0
    2.6320    0.9543    0.0000 C   0  0  0  0  0  0  0  0  0  0  0  0
    3.6102    1.1622    0.0000 C   0  0  0  0  0  0  0  0  0  0  0  0
    4.2793    0.4190    0.0000 C   0  0  0  0  0  0  0  0  0  0  0  0
    3.9703   -0.5320    0.0000 C   0  0  0  0  0  0  0  0  0  0  0  0
    3.9192    2.1132    0.0000 O   0  0  0  0  0  0  0  0  0  0  0  0
    4.8973    2.3212    0.0000 C   0  0  0  0  0  0  0  0  0  0  0  0
    5.5665    1.5780    0.0000 F   0  0  0  0  0  0  0  0  0  0  0  0
    5.2063    3.2722    0.0000 F   0  0  0  0  0  0  0  0  0  0  0  0
   -0.8660   -1.5000    0.0000 O   0  0  0  0  0  0  0  0  0  0  0  0
   -0.8660   -0.5000    0.0000 C   0  0  0  0  0  0  0  0  0  0  0  0
   -1.7321    0.0000    0.0000 C   0  0  0  0  0  0  0  0  0  0  0  0
   -1.7321    1.0000    0.0000 C   0  0  0  0  0  0  0  0  0  0  0  0
   -0.8660    1.5000    0.0000 C   0  0  0  0  0  0  0  0  0  0  0  0
    0.0000    1.0000    0.0000 C   0  0  0  0  0  0  0  0  0  0  0  0
    0.0000    0.0000    0.0000 C   0  0  0  0  0  0  0  0  0  0  0  0
    0.8660    1.5000    0.0000 F   0  0  0  0  0  0  0  0  0  0  0  0
   -0.8660    2.5000    0.0000 F   0  0  0  0  0  0  0  0  0  0  0  0
  1  6  2  0  0  0  0
  1  2  1  0  0  0  0
  1 20  1  0  0  0  0
  2  3  2  0  0  0  0
  3  4  1  0  0  0  0
  4  9  2  0  0  0  0
  4  5  1  0  0  0  0
  5  6  1  0  0  0  0
  5  7  1  0  0  0  0
  7  8  2  0  0  0  0
  7 10  1  0  0  0  0
  8  9  1  0  0  0  0
 10 15  1  0  0  0  0
 10 11  2  0  0  0  0
 11 12  1  0  0  0  0
 12 13  2  0  0  0  0
 13 14  1  0  0  0  0
 13 16  1  0  0  0  0
 14 15  2  0  0  0  0
 16 17  1  0  0  0  0
 17 18  1  0  0  0  0
 17 19  1  0  0  0  0
 20 21  1  0  0  0  0
 21 26  1  0  0  0  0
 21 22  2  0  0  0  0
 22 23  1  0  0  0  0
 23 24  2  0  0  0  0
 24 25  1  0  0  0  0
 24 28  1  0  0  0  0
 25 26  2  0  0  0  0
 25 27  1  0  0  0  0
M  END
> <MW>
390.3

> <EC50>
3.446

$$$$
