MMV672624
 OpenBabel06241423362D

 32 36  0  0  1  0  0  0  0  0999 V2000
    0.6104   -4.1887    0.0000 C    0  0  0  0  0  0  0  0  0  0  0  0
    1.5886   -4.3966    0.0000 N    0  0  0  0  0  0  0  0  0  0  0  0
    2.2577   -3.6535    0.0000 C    0  0  0  0  0  0  0  0  0  0  0  0
    1.9487   -2.7024    0.0000 C    0  0  0  0  0  0  0  0  0  0  0  0
    0.9706   -2.4945    0.0000 N    0  0  0  0  0  0  0  0  0  0  0  0
    0.3014   -3.2377    0.0000 C    0  0  0  0  0  0  0  0  0  0  0  0
   -0.6767   -3.0298    0.0000 C    0  0  0  0  0  0  0  0  0  0  0  0
   -0.9857   -2.0787    0.0000 O    0  0  0  0  0  0  0  0  0  0  0  0
   -1.3459   -3.7729    0.0000 N    0  0  0  0  0  0  0  0  0  0  0  0
   -2.3240   -3.5650    0.0000 C    0  0  3  0  0  0  0  0  0  0  0  0
   -3.0671   -4.2341    0.0000 C    0  0  0  0  0  0  0  0  0  0  0  0
   -3.9332   -3.7341    0.0000 C    0  0  0  0  0  0  0  0  0  0  0  0
   -3.7253   -2.7560    0.0000 C    0  0  0  0  0  0  0  0  0  0  0  0
   -2.7307   -2.6514    0.0000 C    0  0  0  0  0  0  0  0  0  0  0  0
   -2.3240   -1.7379    0.0000 C    0  0  0  0  0  0  0  0  0  0  0  0
   -2.9118   -0.9289    0.0000 C    0  0  0  0  0  0  0  0  0  0  0  0
   -3.9063   -1.0334    0.0000 C    0  0  0  0  0  0  0  0  0  0  0  0
   -4.3130   -1.9470    0.0000 C    0  0  0  0  0  0  0  0  0  0  0  0
   -4.4941   -0.2244    0.0000 Cl   0  0  0  0  0  0  0  0  0  0  0  0
    0.8660   -1.5000    0.0000 C    0  0  0  0  0  0  0  0  0  0  0  0
    1.7796   -1.0933    0.0000 N    0  0  0  0  0  0  0  0  0  0  0  0
    2.4487   -1.8364    0.0000 N    0  0  0  0  0  0  0  0  0  0  0  0
    0.0000   -1.0000    0.0000 C    0  0  0  0  0  0  0  0  0  0  0  0
   -0.8660   -1.5000    0.0000 C    0  0  0  0  0  0  0  0  0  0  0  0
   -1.7321   -1.0000    0.0000 C    0  0  0  0  0  0  0  0  0  0  0  0
   -1.7321    0.0000    0.0000 C    0  0  0  0  0  0  0  0  0  0  0  0
   -0.8660    0.5000    0.0000 C    0  0  0  0  0  0  0  0  0  0  0  0
    0.0000    0.0000    0.0000 C    0  0  0  0  0  0  0  0  0  0  0  0
   -2.5981    0.5000    0.0000 O    0  0  0  0  0  0  0  0  0  0  0  0
   -2.5981    1.5000    0.0000 C    0  0  0  0  0  0  0  0  0  0  0  0
   -1.7321    2.0000    0.0000 F    0  0  0  0  0  0  0  0  0  0  0  0
   -3.4641    2.0000    0.0000 F    0  0  0  0  0  0  0  0  0  0  0  0
  1  6  2  0  0  0  0
  1  2  1  0  0  0  0
  2  3  2  0  0  0  0
  3  4  1  0  0  0  0
  4 22  2  0  0  0  0
  4  5  1  0  0  0  0
  5  6  1  0  0  0  0
  5 20  1  0  0  0  0
  6  7  1  0  0  0  0
  7  8  2  0  0  0  0
  7  9  1  0  0  0  0
  9 10  1  0  0  0  0
 10 14  1  0  0  0  0
 10 11  1  0  0  0  0
 11 12  1  0  0  0  0
 12 13  1  0  0  0  0
 13 18  1  0  0  0  0
 13 14  2  0  0  0  0
 14 15  1  0  0  0  0
 15 16  2  0  0  0  0
 16 17  1  0  0  0  0
 17 18  2  0  0  0  0
 17 19  1  0  0  0  0
 20 21  2  0  0  0  0
 20 23  1  0  0  0  0
 21 22  1  0  0  0  0
 23 28  1  0  0  0  0
 23 24  2  0  0  0  0
 24 25  1  0  0  0  0
 25 26  2  0  0  0  0
 26 27  1  0  0  0  0
 26 29  1  0  0  0  0
 27 28  2  0  0  0  0
 29 30  1  0  0  0  0
 30 31  1  0  0  0  0
 30 32  1  0  0  0  0
M  END
> <MW>
455.85

> <EC50>
0.5468

$$$$
